<?xml version="1.0" encoding="UTF-8"?>

<!-- generated on 2025-11-06 15:38:56 by Eclipse SUMO netedit Version 1.24.0
<neteditConfiguration xmlns:xsi="http://www.w3.org/2001/XMLSchema-instance" xsi:noNamespaceSchemaLocation="http://sumo.dlr.de/xsd/neteditConfiguration.xsd">

    <input>
        <sumocfg-file value="./osm.sumocfg"/>
        <additional-files value="./osm.poly.xml.gz,./output.add.xml"/>
        <route-files value="./custom_settings.add.xml,./custom_car_flow.xml,./custom_motorcycle_flow.xml,./custom_truck_flow.xml"/>
        <sumo-net-file value="./custom_net.net.xml"/>
    </input>

    <output>
        <output-file value="./custom_net.net.xml"/>
        <output.street-names value="true"/>
    </output>

    <processing>
        <geometry.min-radius.fix.railways value="false"/>
        <geometry.avoid-overlap value="false"/>
        <geometry.max-grade.fix value="false"/>
        <offset.disable-normalization value="true"/>
        <lefthand value="0"/>
    </processing>

    <junctions>
        <no-turnarounds value="true"/>
        <junctions.corner-detail value="5"/>
        <junctions.limit-turn-speed value="5.50"/>
        <rectangular-lane-cut value="0"/>
    </junctions>

    <pedestrian>
        <walkingareas value="0"/>
    </pedestrian>

</neteditConfiguration>
-->

<net version="1.20" junctionCornerDetail="5" limitTurnSpeed="5.50" avoidOverlap="0" xmlns:xsi="http://www.w3.org/2001/XMLSchema-instance" xsi:noNamespaceSchemaLocation="http://sumo.dlr.de/xsd/net_file.xsd">

    <location netOffset="-256424.04,-2676580.34" convBoundary="-64.46,-67.39,862.14,717.36" origBoundary="120.602206,24.183038,120.610587,24.189650" projParameter="+proj=utm +zone=51 +ellps=WGS84 +datum=WGS84 +units=m +no_defs"/>

    <type id="highway.primary" priority="12" numLanes="2" speed="27.78" disallow="tram rail_urban rail rail_electric rail_fast ship container cable_car subway aircraft wheelchair scooter drone" oneway="0"/>
    <type id="highway.residential" priority="3" numLanes="1" speed="13.89" disallow="tram rail_urban rail rail_electric rail_fast ship container cable_car subway aircraft wheelchair scooter drone" oneway="0"/>
    <type id="highway.tertiary" priority="10" numLanes="1" speed="22.22" disallow="tram rail_urban rail rail_electric rail_fast ship container cable_car subway aircraft wheelchair scooter drone" oneway="0"/>

    <edge id=":11514168000_0" function="internal">
        <lane id=":11514168000_0_0" index="0" disallow="tram rail_urban rail rail_electric rail_fast ship container cable_car subway aircraft wheelchair scooter drone" speed="3.65" length="4.67" shape="-0.20,69.92 -1.29,68.98 -1.59,68.13 -1.09,67.39 0.20,66.74"/>
    </edge>
    <edge id=":12122195063_0" function="internal">
        <lane id=":12122195063_0_0" index="0" disallow="tram rail_urban rail rail_electric rail_fast ship container cable_car subway aircraft wheelchair scooter drone" speed="3.65" length="4.67" shape="841.46,337.36 842.74,338.02 843.22,338.78 842.91,339.61 841.80,340.54"/>
    </edge>
    <edge id=":1253678773_0" function="internal">
        <lane id=":1253678773_0_0" index="0" disallow="tram rail_urban rail rail_electric rail_fast ship container cable_car subway aircraft wheelchair scooter drone" speed="7.50" length="11.36" width="2.40" shape="577.05,330.72 576.18,327.96 574.54,326.00 572.12,324.85 568.91,324.51"/>
    </edge>
    <edge id=":1253678773_1" function="internal">
        <lane id=":1253678773_1_0" index="0" disallow="tram rail_urban rail rail_electric rail_fast ship container cable_car subway aircraft wheelchair scooter drone" speed="13.89" length="20.88" width="2.40" shape="577.05,330.72 576.13,324.72 575.35,320.42 574.39,316.17 572.93,310.27"/>
    </edge>
    <edge id=":1253678773_2" function="internal">
        <lane id=":1253678773_2_0" index="0" disallow="tram rail_urban rail rail_electric rail_fast ship container cable_car subway aircraft wheelchair scooter drone" speed="8.75" length="4.13" shape="579.82,330.31 578.64,326.49 578.56,326.39"/>
    </edge>
    <edge id=":1253678773_3" function="internal">
        <lane id=":1253678773_3_0" index="0" disallow="tram rail_urban rail rail_electric rail_fast ship container cable_car subway aircraft wheelchair scooter drone" speed="13.89" length="21.16" shape="579.82,330.31 578.89,324.27 578.09,319.88 577.12,315.53 575.64,309.59"/>
    </edge>
    <edge id=":1253678773_4" function="internal">
        <lane id=":1253678773_4_0" index="0" disallow="tram rail_urban rail rail_electric rail_fast ship container cable_car subway aircraft wheelchair scooter drone" speed="9.32" length="5.69" width="2.40" shape="579.82,330.31 579.65,324.62"/>
        <lane id=":1253678773_4_1" index="1" disallow="tram rail_urban rail rail_electric rail_fast ship container cable_car subway aircraft wheelchair scooter drone" speed="8.79" length="4.79" shape="579.82,330.31 579.80,325.52"/>
    </edge>
    <edge id=":1253678773_6" function="internal">
        <lane id=":1253678773_6_0" index="0" disallow="tram rail_urban rail rail_electric rail_fast ship container cable_car subway aircraft wheelchair scooter drone" speed="4.60" length="1.48" width="2.40" shape="579.82,330.31 580.47,328.93"/>
        <lane id=":1253678773_6_1" index="1" disallow="tram rail_urban rail rail_electric rail_fast ship container cable_car subway aircraft wheelchair scooter drone" speed="3.65" length="1.48" shape="579.82,330.31 580.43,329.01"/>
    </edge>
    <edge id=":1253678773_32" function="internal">
        <lane id=":1253678773_32_0" index="0" disallow="tram rail_urban rail rail_electric rail_fast ship container cable_car subway aircraft wheelchair scooter drone" speed="8.75" length="11.33" shape="578.56,326.39 576.43,323.78 573.17,322.19 568.86,321.71"/>
    </edge>
    <edge id=":1253678773_33" function="internal">
        <lane id=":1253678773_33_0" index="0" disallow="tram rail_urban rail rail_electric rail_fast ship container cable_car subway aircraft wheelchair scooter drone" speed="9.32" length="15.63" width="2.40" shape="579.65,324.62 579.63,323.85 581.27,319.17 584.73,316.27 590.00,315.17"/>
        <lane id=":1253678773_33_1" index="0" disallow="tram rail_urban rail rail_electric rail_fast ship container cable_car subway aircraft wheelchair scooter drone" speed="8.79" length="14.04" shape="579.80,325.52 579.79,325.07 581.50,321.26 584.93,318.89 590.10,317.96"/>
    </edge>
    <edge id=":1253678773_34" function="internal">
        <lane id=":1253678773_34_0" index="0" disallow="tram rail_urban rail rail_electric rail_fast ship container cable_car subway aircraft wheelchair scooter drone" speed="4.60" length="7.24" width="2.40" shape="580.47,328.93 580.97,327.87 582.34,326.90 583.94,327.43 585.75,329.43"/>
        <lane id=":1253678773_34_1" index="0" disallow="tram rail_urban rail rail_electric rail_fast ship container cable_car subway aircraft wheelchair scooter drone" speed="3.65" length="3.23" shape="580.43,329.01 581.16,328.50 582.01,328.77 582.98,329.84"/>
    </edge>
    <edge id=":1253678773_8" function="internal">
        <lane id=":1253678773_8_0" index="0" disallow="tram rail_urban rail rail_electric rail_fast ship container cable_car subway aircraft wheelchair scooter drone" speed="5.97" length="8.34" width="2.40" shape="590.31,323.96 588.02,324.37 586.50,325.42 585.74,327.11 585.75,329.43"/>
    </edge>
    <edge id=":1253678773_9" function="internal">
        <lane id=":1253678773_9_0" index="0" disallow="tram rail_urban rail rail_electric rail_fast ship container cable_car subway aircraft wheelchair scooter drone" speed="13.89" length="21.40" width="2.40" shape="590.31,323.96 568.91,324.51"/>
    </edge>
    <edge id=":1253678773_10" function="internal">
        <lane id=":1253678773_10_0" index="0" disallow="tram rail_urban rail rail_electric rail_fast ship container cable_car subway aircraft wheelchair scooter drone" speed="7.46" length="3.82" shape="590.21,321.16 586.58,321.82 586.47,321.89"/>
    </edge>
    <edge id=":1253678773_11" function="internal">
        <lane id=":1253678773_11_0" index="0" disallow="tram rail_urban rail rail_electric rail_fast ship container cable_car subway aircraft wheelchair scooter drone" speed="13.89" length="21.35" shape="590.21,321.16 568.86,321.71"/>
    </edge>
    <edge id=":1253678773_12" function="internal">
        <lane id=":1253678773_12_0" index="0" disallow="tram rail_urban rail rail_electric rail_fast ship container cable_car subway aircraft wheelchair scooter drone" speed="10.78" length="6.51" width="2.40" shape="590.21,321.16 583.72,320.67"/>
        <lane id=":1253678773_12_1" index="1" disallow="tram rail_urban rail rail_electric rail_fast ship container cable_car subway aircraft wheelchair scooter drone" speed="10.32" length="5.16" shape="590.21,321.16 585.08,320.60"/>
    </edge>
    <edge id=":1253678773_14" function="internal">
        <lane id=":1253678773_14_0" index="0" disallow="tram rail_urban rail rail_electric rail_fast ship container cable_car subway aircraft wheelchair scooter drone" speed="4.60" length="1.49" width="2.40" shape="590.21,321.16 588.89,320.35"/>
        <lane id=":1253678773_14_1" index="1" disallow="tram rail_urban rail rail_electric rail_fast ship container cable_car subway aircraft wheelchair scooter drone" speed="3.65" length="1.49" shape="590.21,321.16 588.98,320.40"/>
    </edge>
    <edge id=":1253678773_35" function="internal">
        <lane id=":1253678773_35_0" index="0" disallow="tram rail_urban rail rail_electric rail_fast ship container cable_car subway aircraft wheelchair scooter drone" speed="7.46" length="9.42" shape="586.47,321.89 584.17,323.48 582.97,326.16 582.98,329.84"/>
    </edge>
    <edge id=":1253678773_36" function="internal">
        <lane id=":1253678773_36_0" index="0" disallow="tram rail_urban rail rail_electric rail_fast ship container cable_car subway aircraft wheelchair scooter drone" speed="10.78" length="15.81" width="2.40" shape="583.72,320.67 578.68,318.69 575.08,315.22 572.93,310.27"/>
        <lane id=":1253678773_36_1" index="0" disallow="tram rail_urban rail rail_electric rail_fast ship container cable_car subway aircraft wheelchair scooter drone" speed="10.32" length="15.21" shape="585.08,320.60 584.97,320.59 580.79,318.47 577.68,314.80 575.64,309.59"/>
    </edge>
    <edge id=":1253678773_37" function="internal">
        <lane id=":1253678773_37_0" index="0" disallow="tram rail_urban rail rail_electric rail_fast ship container cable_car subway aircraft wheelchair scooter drone" speed="4.60" length="7.22" width="2.40" shape="588.89,320.35 587.91,319.74 587.11,318.27 587.80,316.74 590.00,315.17"/>
        <lane id=":1253678773_37_1" index="0" disallow="tram rail_urban rail rail_electric rail_fast ship container cable_car subway aircraft wheelchair scooter drone" speed="3.65" length="3.23" shape="588.98,320.40 588.55,319.62 588.93,318.81 590.10,317.96"/>
    </edge>
    <edge id=":1253678773_16" function="internal">
        <lane id=":1253678773_16_0" index="0" disallow="tram rail_urban rail rail_electric rail_fast ship container cable_car subway aircraft wheelchair scooter drone" speed="8.00" length="12.11" width="2.40" shape="581.46,308.12 582.68,311.29 584.51,313.52 586.95,314.81 590.00,315.17"/>
    </edge>
    <edge id=":1253678773_17" function="internal">
        <lane id=":1253678773_17_0" index="0" disallow="tram rail_urban rail rail_electric rail_fast ship container cable_car subway aircraft wheelchair scooter drone" speed="13.89" length="21.75" width="2.40" shape="581.46,308.12 582.95,314.15 583.97,318.71 584.80,323.29 585.75,329.43"/>
    </edge>
    <edge id=":1253678773_18" function="internal">
        <lane id=":1253678773_18_0" index="0" disallow="tram rail_urban rail rail_electric rail_fast ship container cable_car subway aircraft wheelchair scooter drone" speed="9.19" length="4.64" shape="578.75,308.81 580.35,312.93 580.49,313.10"/>
    </edge>
    <edge id=":1253678773_19" function="internal">
        <lane id=":1253678773_19_0" index="0" disallow="tram rail_urban rail rail_electric rail_fast ship container cable_car subway aircraft wheelchair scooter drone" speed="13.89" length="21.47" shape="578.75,308.81 580.23,314.79 581.23,319.25 582.04,323.75 582.98,329.84"/>
    </edge>
    <edge id=":1253678773_20" function="internal">
        <lane id=":1253678773_20_0" index="0" disallow="tram rail_urban rail rail_electric rail_fast ship container cable_car subway aircraft wheelchair scooter drone" speed="9.19" length="5.92" width="2.40" shape="578.75,308.81 579.48,314.68"/>
        <lane id=":1253678773_20_1" index="1" disallow="tram rail_urban rail rail_electric rail_fast ship container cable_car subway aircraft wheelchair scooter drone" speed="8.65" length="5.09" shape="578.75,308.81 579.27,313.87"/>
    </edge>
    <edge id=":1253678773_22" function="internal">
        <lane id=":1253678773_22_0" index="0" disallow="tram rail_urban rail rail_electric rail_fast ship container cable_car subway aircraft wheelchair scooter drone" speed="4.60" length="1.49" width="2.40" shape="578.75,308.81 578.23,310.26"/>
        <lane id=":1253678773_22_1" index="1" disallow="tram rail_urban rail rail_electric rail_fast ship container cable_car subway aircraft wheelchair scooter drone" speed="3.65" length="1.49" shape="578.75,308.81 578.26,310.17"/>
    </edge>
    <edge id=":1253678773_38" function="internal">
        <lane id=":1253678773_38_0" index="0" disallow="tram rail_urban rail rail_electric rail_fast ship container cable_car subway aircraft wheelchair scooter drone" speed="9.19" length="11.32" shape="580.49,313.10 582.77,315.83 586.02,317.51 590.10,317.96"/>
    </edge>
    <edge id=":1253678773_39" function="internal">
        <lane id=":1253678773_39_0" index="0" disallow="tram rail_urban rail rail_electric rail_fast ship container cable_car subway aircraft wheelchair scooter drone" speed="9.19" length="16.47" width="2.40" shape="579.48,314.68 579.59,315.59 578.23,320.47 574.67,323.44 568.91,324.51"/>
        <lane id=":1253678773_39_1" index="0" disallow="tram rail_urban rail rail_electric rail_fast ship container cable_car subway aircraft wheelchair scooter drone" speed="8.65" length="14.61" shape="579.27,313.87 579.32,314.37 577.87,318.37 574.38,320.82 568.86,321.71"/>
    </edge>
    <edge id=":1253678773_40" function="internal">
        <lane id=":1253678773_40_0" index="0" disallow="tram rail_urban rail rail_electric rail_fast ship container cable_car subway aircraft wheelchair scooter drone" speed="4.60" length="7.22" width="2.40" shape="578.23,310.26 577.84,311.36 576.57,312.45 574.93,312.09 572.93,310.27"/>
        <lane id=":1253678773_40_1" index="0" disallow="tram rail_urban rail rail_electric rail_fast ship container cable_car subway aircraft wheelchair scooter drone" speed="3.65" length="3.23" shape="578.26,310.17 577.58,310.75 576.71,310.56 575.64,309.59"/>
    </edge>
    <edge id=":1253678773_24" function="internal">
        <lane id=":1253678773_24_0" index="0" disallow="tram rail_urban rail rail_electric rail_fast ship container cable_car subway aircraft wheelchair scooter drone" speed="5.74" length="8.31" width="2.40" shape="568.76,315.71 571.09,315.34 572.56,314.30 573.17,312.61 572.93,310.27"/>
    </edge>
    <edge id=":1253678773_25" function="internal">
        <lane id=":1253678773_25_0" index="0" disallow="tram rail_urban rail rail_electric rail_fast ship container cable_car subway aircraft wheelchair scooter drone" speed="13.89" length="21.25" width="2.40" shape="568.76,315.71 590.00,315.17"/>
    </edge>
    <edge id=":1253678773_26" function="internal">
        <lane id=":1253678773_26_0" index="0" disallow="tram rail_urban rail rail_electric rail_fast ship container cable_car subway aircraft wheelchair scooter drone" speed="7.29" length="4.05" shape="568.81,318.51 572.62,317.89 572.78,317.79"/>
    </edge>
    <edge id=":1253678773_27" function="internal">
        <lane id=":1253678773_27_0" index="0" disallow="tram rail_urban rail rail_electric rail_fast ship container cable_car subway aircraft wheelchair scooter drone" speed="13.89" length="21.30" shape="568.81,318.51 590.10,317.96"/>
    </edge>
    <edge id=":1253678773_28" function="internal">
        <lane id=":1253678773_28_0" index="0" disallow="tram rail_urban rail rail_electric rail_fast ship container cable_car subway aircraft wheelchair scooter drone" speed="10.41" length="6.34" width="2.40" shape="568.81,318.51 575.13,319.05"/>
        <lane id=":1253678773_28_1" index="1" disallow="tram rail_urban rail rail_electric rail_fast ship container cable_car subway aircraft wheelchair scooter drone" speed="9.92" length="5.14" shape="568.81,318.51 573.92,319.09"/>
    </edge>
    <edge id=":1253678773_30" function="internal">
        <lane id=":1253678773_30_0" index="0" disallow="tram rail_urban rail rail_electric rail_fast ship container cable_car subway aircraft wheelchair scooter drone" speed="4.60" length="1.48" width="2.40" shape="568.81,318.51 570.09,319.33"/>
        <lane id=":1253678773_30_1" index="1" disallow="tram rail_urban rail rail_electric rail_fast ship container cable_car subway aircraft wheelchair scooter drone" speed="3.65" length="1.48" shape="568.81,318.51 570.02,319.29"/>
    </edge>
    <edge id=":1253678773_41" function="internal">
        <lane id=":1253678773_41_0" index="0" disallow="tram rail_urban rail rail_electric rail_fast ship container cable_car subway aircraft wheelchair scooter drone" speed="7.29" length="9.57" shape="572.78,317.79 575.04,316.20 576.04,313.43 575.64,309.59"/>
    </edge>
    <edge id=":1253678773_42" function="internal">
        <lane id=":1253678773_42_0" index="0" disallow="tram rail_urban rail rail_electric rail_fast ship container cable_car subway aircraft wheelchair scooter drone" speed="10.41" length="15.93" width="2.40" shape="575.13,319.05 575.60,319.09 580.68,321.11 584.07,324.56 585.75,329.43"/>
        <lane id=":1253678773_42_1" index="0" disallow="tram rail_urban rail rail_electric rail_fast ship container cable_car subway aircraft wheelchair scooter drone" speed="9.92" length="15.00" shape="573.92,319.09 574.37,319.14 578.58,321.24 581.45,324.80 582.98,329.84"/>
    </edge>
    <edge id=":1253678773_43" function="internal">
        <lane id=":1253678773_43_0" index="0" disallow="tram rail_urban rail rail_electric rail_fast ship container cable_car subway aircraft wheelchair scooter drone" speed="4.60" length="7.24" width="2.40" shape="570.09,319.33 571.08,319.97 571.86,321.46 571.13,322.97 568.91,324.51"/>
        <lane id=":1253678773_43_1" index="0" disallow="tram rail_urban rail rail_electric rail_fast ship container cable_car subway aircraft wheelchair scooter drone" speed="3.65" length="3.23" shape="570.02,319.29 570.44,320.08 570.05,320.89 568.86,321.71"/>
    </edge>
    <edge id=":1253678813_0" function="internal">
        <lane id=":1253678813_0_0" index="0" disallow="tram rail_urban rail rail_electric rail_fast ship container cable_car subway aircraft wheelchair scooter drone" speed="10.54" length="14.80" width="6.00" shape="742.96,170.07 741.36,165.74 739.38,162.43 737.02,160.13 734.28,158.83"/>
    </edge>
    <edge id=":1253678813_1" function="internal">
        <lane id=":1253678813_1_0" index="0" disallow="tram rail_urban rail rail_electric rail_fast ship container cable_car subway aircraft wheelchair scooter drone" speed="22.22" length="15.81" shape="742.96,170.07 741.97,166.31 741.18,162.35 740.70,158.35 740.64,154.49"/>
    </edge>
    <edge id=":1253678813_2" function="internal">
        <lane id=":1253678813_2_0" index="0" disallow="tram rail_urban rail rail_electric rail_fast ship container cable_car subway aircraft wheelchair scooter drone" speed="3.65" length="1.44" shape="742.96,170.07 743.39,168.69"/>
    </edge>
    <edge id=":1253678813_9" function="internal">
        <lane id=":1253678813_9_0" index="0" disallow="tram rail_urban rail rail_electric rail_fast ship container cable_car subway aircraft wheelchair scooter drone" speed="3.65" length="3.23" shape="743.39,168.69 744.05,168.08 744.93,168.24 746.03,169.17"/>
    </edge>
    <edge id=":1253678813_3" function="internal">
        <lane id=":1253678813_3_0" index="0" disallow="tram rail_urban rail rail_electric rail_fast ship container cable_car subway aircraft wheelchair scooter drone" speed="5.75" length="9.17" shape="750.66,163.96 747.95,163.88 746.27,164.72 745.63,166.49 746.03,169.17"/>
    </edge>
    <edge id=":1253678813_4" function="internal">
        <lane id=":1253678813_4_0" index="0" disallow="tram rail_urban rail rail_electric rail_fast ship container cable_car subway aircraft wheelchair scooter drone" speed="27.78" length="17.19" width="6.00" shape="750.66,163.96 745.21,162.75 741.11,161.35 737.69,159.98 734.28,158.83"/>
    </edge>
    <edge id=":1253678813_5" function="internal">
        <lane id=":1253678813_5_0" index="0" disallow="tram rail_urban rail rail_electric rail_fast ship container cable_car subway aircraft wheelchair scooter drone" speed="8.09" length="13.21" shape="751.18,160.80 746.49,159.74 743.16,158.33 741.21,156.58 740.64,154.49"/>
    </edge>
    <edge id=":1253678813_6" function="internal">
        <lane id=":1253678813_6_0" index="0" disallow="tram rail_urban rail rail_electric rail_fast ship container cable_car subway aircraft wheelchair scooter drone" speed="22.22" length="14.76" shape="743.83,154.64 743.88,158.34 744.32,161.98 745.07,165.58 746.03,169.17"/>
    </edge>
    <edge id=":1253678813_7" function="internal">
        <lane id=":1253678813_7_0" index="0" disallow="tram rail_urban rail rail_electric rail_fast ship container cable_car subway aircraft wheelchair scooter drone" speed="7.01" length="2.64" width="6.00" shape="743.83,154.64 743.18,157.19"/>
    </edge>
    <edge id=":1253678813_8" function="internal">
        <lane id=":1253678813_8_0" index="0" disallow="tram rail_urban rail rail_electric rail_fast ship container cable_car subway aircraft wheelchair scooter drone" speed="3.65" length="1.44" shape="743.83,154.64 742.98,155.80"/>
    </edge>
    <edge id=":1253678813_10" function="internal">
        <lane id=":1253678813_10_0" index="0" disallow="tram rail_urban rail rail_electric rail_fast ship container cable_car subway aircraft wheelchair scooter drone" speed="7.01" length="9.77" width="6.00" shape="743.18,157.19 743.12,157.40 741.29,159.02 738.35,159.50 734.28,158.83"/>
    </edge>
    <edge id=":1253678813_11" function="internal">
        <lane id=":1253678813_11_0" index="0" disallow="tram rail_urban rail rail_electric rail_fast ship container cable_car subway aircraft wheelchair scooter drone" speed="3.65" length="3.23" shape="742.98,155.80 742.16,156.16 741.38,155.72 740.64,154.49"/>
    </edge>
    <edge id=":1253678842_0" function="internal">
        <lane id=":1253678842_0_0" index="0" disallow="tram rail_urban rail rail_electric rail_fast ship container cable_car subway aircraft wheelchair scooter drone" speed="22.22" length="12.44" shape="740.87,142.95 740.89,139.60 741.04,136.73 741.30,133.87 741.66,130.54"/>
    </edge>
    <edge id=":1253678842_1" function="internal">
        <lane id=":1253678842_1_0" index="0" disallow="pedestrian tram rail_urban rail rail_electric rail_fast ship container cable_car subway aircraft wheelchair scooter drone" speed="6.54" length="1.49" shape="740.87,142.95 741.42,141.56"/>
    </edge>
    <edge id=":1253678842_2" function="internal">
        <lane id=":1253678842_2_0" index="0" disallow="tram rail_urban rail rail_electric rail_fast ship container cable_car subway aircraft wheelchair scooter drone" speed="3.65" length="1.44" shape="740.87,142.95 741.66,141.74"/>
    </edge>
    <edge id=":1253678842_10" function="internal">
        <lane id=":1253678842_10_0" index="0" disallow="pedestrian tram rail_urban rail rail_electric rail_fast ship container cable_car subway aircraft wheelchair scooter drone" speed="6.54" length="8.63" shape="741.42,141.56 743.09,140.74 745.90,140.48 749.83,140.79"/>
    </edge>
    <edge id=":1253678842_11" function="internal">
        <lane id=":1253678842_11_0" index="0" disallow="tram rail_urban rail rail_electric rail_fast ship container cable_car subway aircraft wheelchair scooter drone" speed="3.65" length="3.23" shape="741.66,141.74 742.45,141.33 743.26,141.72 744.07,142.91"/>
    </edge>
    <edge id=":1253678842_3" function="internal">
        <lane id=":1253678842_3_0" index="0" disallow="pedestrian tram rail_urban rail rail_electric rail_fast ship container cable_car subway aircraft wheelchair scooter drone" speed="6.79" length="9.79" shape="744.84,130.90 744.93,133.54 745.87,135.54 747.64,136.90 750.25,137.61"/>
    </edge>
    <edge id=":1253678842_4" function="internal">
        <lane id=":1253678842_4_0" index="0" disallow="tram rail_urban rail rail_electric rail_fast ship container cable_car subway aircraft wheelchair scooter drone" speed="22.22" length="12.05" shape="744.84,130.90 744.48,134.17 744.23,136.89 744.09,139.63 744.07,142.91"/>
    </edge>
    <edge id=":1253678842_5" function="internal">
        <lane id=":1253678842_5_0" index="0" disallow="tram rail_urban rail rail_electric rail_fast ship container cable_car subway aircraft wheelchair scooter drone" speed="3.65" length="1.44" shape="744.84,130.90 743.92,132.00"/>
    </edge>
    <edge id=":1253678842_12" function="internal">
        <lane id=":1253678842_12_0" index="0" disallow="tram rail_urban rail rail_electric rail_fast ship container cable_car subway aircraft wheelchair scooter drone" speed="3.65" length="3.23" shape="743.92,132.00 743.08,132.31 742.33,131.82 741.66,130.54"/>
    </edge>
    <edge id=":1253678842_6" function="internal">
        <lane id=":1253678842_6_0" index="0" disallow="pedestrian tram rail_urban rail rail_electric rail_fast ship container cable_car subway aircraft wheelchair scooter drone" speed="6.20" length="8.94" shape="735.38,134.78 737.89,135.05 739.78,134.43 741.03,132.93 741.66,130.54"/>
    </edge>
    <edge id=":1253678842_7" function="internal">
        <lane id=":1253678842_7_0" index="0" disallow="pedestrian tram rail_urban rail rail_electric rail_fast ship container cable_car subway aircraft wheelchair scooter drone" speed="20.84" length="15.34" shape="735.38,134.78 739.74,135.86 742.75,136.52 745.79,137.01 750.25,137.61"/>
        <lane id=":1253678842_7_1" index="1" disallow="pedestrian tram rail_urban rail rail_electric rail_fast ship container cable_car subway aircraft wheelchair scooter drone" speed="20.84" length="15.34" shape="734.60,137.89 739.07,138.99 742.15,139.67 745.27,140.17 749.83,140.79"/>
    </edge>
    <edge id=":1253678842_9" function="internal">
        <lane id=":1253678842_9_0" index="0" disallow="pedestrian tram rail_urban rail rail_electric rail_fast ship container cable_car subway aircraft wheelchair scooter drone" speed="7.91" length="11.14" shape="734.60,137.89 738.73,139.09 741.69,140.33 743.47,141.60 744.07,142.91"/>
    </edge>
    <edge id=":1253678869_0" function="internal">
        <lane id=":1253678869_0_0" index="0" disallow="tram rail_urban rail rail_electric rail_fast ship container cable_car subway aircraft wheelchair scooter drone" speed="9.81" length="17.00" shape="786.22,326.56 784.53,323.01 781.72,320.45 777.81,318.88 772.78,318.30"/>
    </edge>
    <edge id=":1253678869_1" function="internal">
        <lane id=":1253678869_1_0" index="0" disallow="tram rail_urban rail rail_electric rail_fast ship container cable_car subway aircraft wheelchair scooter drone" speed="22.22" length="20.24" shape="786.22,326.56 781.19,306.96"/>
    </edge>
    <edge id=":1253678869_2" function="internal">
        <lane id=":1253678869_2_0" index="0" disallow="tram rail_urban rail rail_electric rail_fast ship container cable_car subway aircraft wheelchair scooter drone" speed="8.99" length="3.94" shape="786.22,326.56 785.95,322.62"/>
    </edge>
    <edge id=":1253678869_3" function="internal">
        <lane id=":1253678869_3_0" index="0" disallow="tram rail_urban rail rail_electric rail_fast ship container cable_car subway aircraft wheelchair scooter drone" speed="3.65" length="1.44" shape="786.22,326.56 786.67,325.19"/>
    </edge>
    <edge id=":1253678869_17" function="internal">
        <lane id=":1253678869_17_0" index="0" disallow="tram rail_urban rail rail_electric rail_fast ship container cable_car subway aircraft wheelchair scooter drone" speed="8.99" length="17.52" shape="785.95,322.62 785.88,321.62 788.01,318.00 792.62,315.69 799.71,314.70"/>
    </edge>
    <edge id=":1253678869_18" function="internal">
        <lane id=":1253678869_18_0" index="0" disallow="tram rail_urban rail rail_electric rail_fast ship container cable_car subway aircraft wheelchair scooter drone" speed="3.65" length="3.23" shape="786.67,325.19 787.33,324.58 788.21,324.75 789.30,325.69"/>
    </edge>
    <edge id=":1253678869_4" function="internal">
        <lane id=":1253678869_4_0" index="0" disallow="tram rail_urban rail rail_electric rail_fast ship container cable_car subway aircraft wheelchair scooter drone" speed="7.71" length="15.44" shape="799.84,317.90 794.46,318.58 790.91,320.10 789.19,322.47 789.30,325.69"/>
    </edge>
    <edge id=":1253678869_5" function="internal">
        <lane id=":1253678869_5_0" index="0" disallow="tram rail_urban rail rail_electric rail_fast ship container cable_car subway aircraft wheelchair scooter drone" speed="13.89" length="27.06" shape="799.84,317.90 772.78,318.30"/>
    </edge>
    <edge id=":1253678869_6" function="internal">
        <lane id=":1253678869_6_0" index="0" disallow="tram rail_urban rail rail_electric rail_fast ship container cable_car subway aircraft wheelchair scooter drone" speed="10.98" length="23.67" shape="799.84,317.90 792.70,317.46 787.20,315.49 783.37,311.99 781.19,306.96"/>
    </edge>
    <edge id=":1253678869_7" function="internal">