<?xml version="1.0" encoding="UTF-8"?>

<!-- generated on 2025-11-04 19:22:58 by Eclipse SUMO netedit Version 1.24.0
-->

<routes xmlns:xsi="http://www.w3.org/2001/XMLSchema-instance" xsi:noNamespaceSchemaLocation="http://sumo.dlr.de/xsd/routes_file.xsd">
    <!-- Vehicles, persons and containers (sorted by depart) -->
    <flow id="truck1" type="truck" begin="0.00" from="-586664246#2" to="-350146688#6" end="3600.00" period="5.00"/>
    <flow id="truck2" type="truck" begin="0.00" from="586657908#0" to="586657042#1" end="3600.00" period="5.00"/>
    <flow id="truck3" type="truck" begin="0.00" from="890146631#1" to="-1117713207#1" end="3600.00" period="5.00"/>
    <flow id="truck4" type="truck" begin="0.00" from="1305093055#0" to="-109505207#2" end="3600.00" period="5.00"/>
</routes>
