<?xml version="1.0" encoding="UTF-8"?>

<!-- generated on 2025-11-13 17:23:37 by Eclipse SUMO netedit Version 1.24.0
<neteditConfiguration xmlns:xsi="http://www.w3.org/2001/XMLSchema-instance" xsi:noNamespaceSchemaLocation="http://sumo.dlr.de/xsd/neteditConfiguration.xsd">

    <input>
        <sumocfg-file value="./osm.sumocfg"/>
        <additional-files value="./osm.poly.xml.gz,./output.add.xml"/>
        <route-files value="./custom_settings.add.xml,./custom_car_flow.xml,./custom_motorcycle_flow.xml,./custom_truck_flow.xml"/>
        <sumo-net-file value="./custom_net.net.xml"/>
    </input>

    <output>
        <output-file value="./custom_net.net.xml"/>
        <output.street-names value="true"/>
    </output>

    <processing>
        <geometry.min-radius.fix.railways value="false"/>
        <geometry.avoid-overlap value="false"/>
        <geometry.max-grade.fix value="false"/>
        <offset.disable-normalization value="true"/>
        <lefthand value="0"/>
    </processing>

    <junctions>
        <no-turnarounds value="true"/>
        <junctions.corner-detail value="5"/>
        <junctions.limit-turn-speed value="5.50"/>
        <rectangular-lane-cut value="0"/>
    </junctions>

    <pedestrian>
        <walkingareas value="0"/>
    </pedestrian>

</neteditConfiguration>
-->

<net version="1.20" junctionCornerDetail="5" limitTurnSpeed="5.50" avoidOverlap="0" xmlns:xsi="http://www.w3.org/2001/XMLSchema-instance" xsi:noNamespaceSchemaLocation="http://sumo.dlr.de/xsd/net_file.xsd">

    <location netOffset="-256424.04,-2676580.34" convBoundary="-64.46,-119.34,877.40,717.36" origBoundary="120.602206,24.183038,120.610587,24.189650" projParameter="+proj=utm +zone=51 +ellps=WGS84 +datum=WGS84 +units=m +no_defs"/>

    <type id="highway.primary" priority="12" numLanes="2" speed="27.78" disallow="tram rail_urban rail rail_electric rail_fast ship container cable_car subway aircraft wheelchair scooter drone" oneway="0"/>
    <type id="highway.residential" priority="3" numLanes="1" speed="13.89" disallow="tram rail_urban rail rail_electric rail_fast ship container cable_car subway aircraft wheelchair scooter drone" oneway="0"/>
    <type id="highway.tertiary" priority="10" numLanes="1" speed="22.22" disallow="tram rail_urban rail rail_electric rail_fast ship container cable_car subway aircraft wheelchair scooter drone" oneway="0"/>

    <edge id=":11514168000_0" function="internal">
        <lane id=":11514168000_0_0" index="0" disallow="tram rail_urban rail rail_electric rail_fast ship container cable_car subway aircraft wheelchair scooter drone" speed="3.65" length="4.67" shape="-0.20,69.92 -1.29,68.98 -1.59,68.13 -1.09,67.39 0.20,66.74"/>
    </edge>
    <edge id=":12122195063_0" function="internal">
        <lane id=":12122195063_0_0" index="0" disallow="tram rail_urban rail rail_electric rail_fast ship container cable_car subway aircraft wheelchair scooter drone" speed="2.75" length="2.65" width="1.83" shape="841.53,338.06 842.26,338.43 842.53,338.86 842.36,339.33 841.73,339.86"/>
    </edge>
    <edge id=":1253678773_0" function="internal">
        <lane id=":1253678773_0_0" index="0" disallow="tram rail_urban rail rail_electric rail_fast ship container cable_car subway aircraft wheelchair scooter drone" speed="8.00" length="12.52" width="5.40" shape="579.29,329.81 578.34,326.69 576.55,324.47 573.93,323.17 570.47,322.78"/>
    </edge>
    <edge id=":1253678773_1" function="internal">
        <lane id=":1253678773_1_0" index="0" disallow="tram rail_urban rail rail_electric rail_fast ship container cable_car subway aircraft wheelchair scooter drone" speed="13.89" length="19.98" width="4.10" shape="579.29,329.81 578.53,325.35 577.50,319.99 576.37,314.64 575.34,310.24"/>
    </edge>
    <edge id=":1253678773_2" function="internal">
        <lane id=":1253678773_2_0" index="0" disallow="tram rail_urban rail rail_electric rail_fast ship container cable_car subway aircraft wheelchair scooter drone" speed="8.49" length="4.76" width="5.20" shape="579.29,329.81 579.66,325.65 579.91,325.13"/>
    </edge>
    <edge id=":1253678773_3" function="internal">
        <lane id=":1253678773_3_0" index="0" disallow="tram rail_urban rail rail_electric rail_fast ship container cable_car subway aircraft wheelchair scooter drone" speed="4.13" length="2.04" width="4.10" shape="579.29,329.81 580.07,328.14 580.23,328.03"/>
    </edge>
    <edge id=":1253678773_16" function="internal">
        <lane id=":1253678773_16_0" index="0" disallow="tram rail_urban rail rail_electric rail_fast ship container cable_car subway aircraft wheelchair scooter drone" speed="8.49" length="12.43" width="5.20" shape="579.91,325.13 581.64,321.53 584.74,318.36 588.51,317.02"/>
    </edge>
    <edge id=":1253678773_17" function="internal">
        <lane id=":1253678773_17_0" index="0" disallow="tram rail_urban rail rail_electric rail_fast ship container cable_car subway aircraft wheelchair scooter drone" speed="4.13" length="3.95" width="4.10" shape="580.23,328.03 581.01,327.48 582.10,327.84 583.34,329.21"/>
    </edge>
    <edge id=":1253678773_4" function="internal">
        <lane id=":1253678773_4_0" index="0" disallow="tram rail_urban rail rail_electric rail_fast ship container cable_car subway aircraft wheelchair scooter drone" speed="6.86" length="10.31" width="4.10" shape="588.69,322.22 585.97,322.74 584.18,324.08 583.30,326.23 583.34,329.21"/>
    </edge>
    <edge id=":1253678773_5" function="internal">
        <lane id=":1253678773_5_0" index="0" disallow="tram rail_urban rail rail_electric rail_fast ship container cable_car subway aircraft wheelchair scooter drone" speed="13.89" length="18.23" width="5.40" shape="588.69,322.22 570.47,322.78"/>
    </edge>
    <edge id=":1253678773_6" function="internal">
        <lane id=":1253678773_6_0" index="0" disallow="tram rail_urban rail rail_electric rail_fast ship container cable_car subway aircraft wheelchair scooter drone" speed="10.10" length="6.51" width="4.10" shape="588.69,322.22 584.65,321.23 582.71,319.90"/>
    </edge>
    <edge id=":1253678773_7" function="internal">
        <lane id=":1253678773_7_0" index="0" disallow="tram rail_urban rail rail_electric rail_fast ship container cable_car subway aircraft wheelchair scooter drone" speed="4.65" length="2.89" width="5.20" shape="588.69,322.22 586.70,320.98 586.43,320.50"/>
    </edge>
    <edge id=":1253678773_18" function="internal">
        <lane id=":1253678773_18_0" index="0" disallow="tram rail_urban rail rail_electric rail_fast ship container cable_car subway aircraft wheelchair scooter drone" speed="10.10" length="12.40" width="4.10" shape="582.71,319.90 580.64,318.47 577.32,314.58 575.34,310.24"/>
    </edge>
    <edge id=":1253678773_19" function="internal">
        <lane id=":1253678773_19_0" index="0" disallow="tram rail_urban rail rail_electric rail_fast ship container cable_car subway aircraft wheelchair scooter drone" speed="4.65" length="4.70" width="5.20" shape="586.43,320.50 586.00,319.71 586.61,318.39 588.51,317.02"/>
    </edge>
    <edge id=":1253678773_8" function="internal">
        <lane id=":1253678773_8_0" index="0" disallow="tram rail_urban rail rail_electric rail_fast ship container cable_car subway aircraft wheelchair scooter drone" speed="8.46" length="13.17" width="5.20" shape="579.32,309.24 580.65,312.73 582.63,315.20 585.25,316.63 588.51,317.02"/>
    </edge>
    <edge id=":1253678773_9" function="internal">
        <lane id=":1253678773_9_0" index="0" disallow="tram rail_urban rail rail_electric rail_fast ship container cable_car subway aircraft wheelchair scooter drone" speed="13.89" length="20.38" width="4.10" shape="579.32,309.24 580.36,313.71 581.51,319.19 582.57,324.69 583.34,329.21"/>
    </edge>
    <edge id=":1253678773_10" function="internal">
        <lane id=":1253678773_10_0" index="0" disallow="tram rail_urban rail rail_electric rail_fast ship container cable_car subway aircraft wheelchair scooter drone" speed="8.32" length="5.09" width="5.40" shape="579.32,309.24 579.25,313.55 578.95,314.27"/>
    </edge>
    <edge id=":1253678773_11" function="internal">
        <lane id=":1253678773_11_0" index="0" disallow="tram rail_urban rail rail_electric rail_fast ship container cable_car subway aircraft wheelchair scooter drone" speed="4.13" length="2.09" width="4.10" shape="579.32,309.24 578.70,310.98 578.52,311.13"/>
    </edge>
    <edge id=":1253678773_20" function="internal">
        <lane id=":1253678773_20_0" index="0" disallow="tram rail_urban rail rail_electric rail_fast ship container cable_car subway aircraft wheelchair scooter drone" speed="8.32" length="12.69" width="5.40" shape="578.95,314.27 577.41,317.94 574.31,321.36 570.47,322.78"/>
    </edge>
    <edge id=":1253678773_21" function="internal">
        <lane id=":1253678773_21_0" index="0" disallow="tram rail_urban rail rail_electric rail_fast ship container cable_car subway aircraft wheelchair scooter drone" speed="4.13" length="3.90" width="4.10" shape="578.52,311.13 577.83,311.72 576.71,311.48 575.34,310.24"/>
    </edge>
    <edge id=":1253678773_12" function="internal">
        <lane id=":1253678773_12_0" index="0" disallow="tram rail_urban rail rail_electric rail_fast ship container cable_car subway aircraft wheelchair scooter drone" speed="6.72" length="10.54" width="4.10" shape="570.38,317.38 573.21,316.89 574.98,315.54 575.69,313.32 575.34,310.24"/>
    </edge>
    <edge id=":1253678773_13" function="internal">
        <lane id=":1253678773_13_0" index="0" disallow="tram rail_urban rail rail_electric rail_fast ship container cable_car subway aircraft wheelchair scooter drone" speed="13.89" length="18.14" width="5.20" shape="570.38,317.38 588.51,317.02"/>
    </edge>
    <edge id=":1253678773_14" function="internal">
        <lane id=":1253678773_14_0" index="0" disallow="tram rail_urban rail rail_electric rail_fast ship container cable_car subway aircraft wheelchair scooter drone" speed="9.73" length="6.81" width="4.10" shape="570.38,317.38 574.64,318.38 576.65,319.75"/>
    </edge>
    <edge id=":1253678773_15" function="internal">
        <lane id=":1253678773_15_0" index="0" disallow="tram rail_urban rail rail_electric rail_fast ship container cable_car subway aircraft wheelchair scooter drone" speed="4.74" length="2.99" width="5.40" shape="570.38,317.38 572.42,318.70 572.68,319.19"/>
    </edge>
    <edge id=":1253678773_22" function="internal">
        <lane id=":1253678773_22_0" index="0" disallow="tram rail_urban rail rail_electric rail_fast ship container cable_car subway aircraft wheelchair scooter drone" speed="9.73" length="11.91" width="4.10" shape="576.65,319.75 578.63,321.09 581.74,324.91 583.34,329.21"/>
    </edge>
    <edge id=":1253678773_23" function="internal">
        <lane id=":1253678773_23_0" index="0" disallow="tram rail_urban rail rail_electric rail_fast ship container cable_car subway aircraft wheelchair scooter drone" speed="4.74" length="4.90" width="5.40" shape="572.68,319.19 573.12,320.04 572.47,321.40 570.47,322.78"/>
    </edge>
    <edge id=":1253678869_0" function="internal">
        <lane id=":1253678869_0_0" index="0" disallow="tram rail_urban rail rail_electric rail_fast ship container cable_car subway aircraft wheelchair scooter drone" speed="9.02" length="14.24" width="5.20" shape="780.07,328.30 778.52,324.39 776.39,321.58 773.70,319.87 770.43,319.27"/>
    </edge>
    <edge id=":1253678869_1" function="internal">
        <lane id=":1253678869_1_0" index="0" disallow="tram rail_urban rail rail_electric rail_fast ship container cable_car subway aircraft wheelchair scooter drone" speed="22.22" length="21.44" width="3.10" shape="780.07,328.30 775.15,307.28"/>
        <lane id=":1253678869_1_1" index="1" disallow="tram rail_urban rail rail_electric rail_fast ship container cable_car subway aircraft wheelchair scooter drone" speed="22.22" length="21.44" width="3.00" shape="783.15,327.43 778.12,306.59"/>
        <lane id=":1253678869_1_2" index="2" disallow="tram rail_urban rail rail_electric rail_fast ship container cable_car subway aircraft wheelchair scooter drone" speed="22.22" length="21.44" width="3.00" shape="786.22,326.56 781.04,305.90"/>
    </edge>
    <edge id=":1253678869_4" function="internal">
        <lane id=":1253678869_4_0" index="0" disallow="tram rail_urban rail rail_electric rail_fast ship container cable_car subway aircraft wheelchair scooter drone" speed="8.99" length="3.97" shape="786.22,326.56 785.95,322.60"/>
    </edge>
    <edge id=":1253678869_5" function="internal">
        <lane id=":1253678869_5_0" index="0" disallow="tram rail_urban rail rail_electric rail_fast ship container cable_car subway aircraft wheelchair scooter drone" speed="5.58" length="1.53" shape="786.22,326.56 786.71,325.06"/>
        <lane id=":1253678869_5_1" index="1" disallow="tram rail_urban rail rail_electric rail_fast ship container cable_car subway aircraft wheelchair scooter drone" speed="4.72" length="1.53" shape="786.22,326.56 786.71,325.06"/>
        <lane id=":1253678869_5_2" index="2" disallow="tram rail_urban rail rail_electric rail_fast ship container cable_car subway aircraft wheelchair scooter drone" speed="3.65" length="1.53" shape="786.22,326.56 786.67,325.19"/>
    </edge>
    <edge id=":1253678869_24" function="internal">
        <lane id=":1253678869_24_0" index="0" disallow="tram rail_urban rail rail_electric rail_fast ship container cable_car subway aircraft wheelchair scooter drone" speed="8.99" length="17.50" shape="785.95,322.60 785.88,321.62 788.01,318.00 792.62,315.69 799.71,314.70"/>
    </edge>
    <edge id=":1253678869_25" function="internal">
        <lane id=":1253678869_25_0" index="0" disallow="tram rail_urban rail rail_electric rail_fast ship container cable_car subway aircraft wheelchair scooter drone" speed="5.58" length="12.45" shape="786.71,325.06 787.55,322.44 789.54,320.63 792.17,321.13 795.46,323.94"/>
        <lane id=":1253678869_25_1" index="0" disallow="tram rail_urban rail rail_electric rail_fast ship container cable_car subway aircraft wheelchair scooter drone" speed="4.72" length="7.78" shape="786.71,325.06 787.11,323.81 788.43,322.61 790.19,322.94 792.38,324.81"/>
        <lane id=":1253678869_25_2" index="0" disallow="tram rail_urban rail rail_electric rail_fast ship container cable_car subway aircraft wheelchair scooter drone" speed="3.65" length="3.23" shape="786.67,325.19 787.33,324.58 788.21,324.75 789.30,325.69"/>
    </edge>
    <edge id=":1253678869_8" function="internal">
        <lane id=":1253678869_8_0" index="0" disallow="tram rail_urban rail rail_electric rail_fast ship container cable_car subway aircraft wheelchair scooter drone" speed="6.06" length="9.07" shape="799.84,317.90 797.31,318.37 795.74,319.53 795.12,321.39 795.46,323.94"/>
    </edge>
    <edge id=":1253678869_9" function="internal">
        <lane id=":1253678869_9_0" index="0" disallow="tram rail_urban rail rail_electric rail_fast ship container cable_car subway aircraft wheelchair scooter drone" speed="13.89" length="29.44" width="5.20" shape="799.84,317.90 770.43,319.27"/>
    </edge>
    <edge id=":1253678869_10" function="internal">
        <lane id=":1253678869_10_0" index="0" disallow="tram rail_urban rail rail_electric rail_fast ship container cable_car subway aircraft wheelchair scooter drone" speed="11.16" length="24.46" width="3.00" shape="799.84,317.90 792.73,317.39 787.22,315.22 783.32,311.39 781.04,305.90"/>
    </edge>
    <edge id=":1253678869_11" function="internal">
        <lane id=":1253678869_11_0" index="0" disallow="tram rail_urban rail rail_electric rail_fast ship container cable_car subway aircraft wheelchair scooter drone" speed="3.65" length="4.67" shape="799.84,317.90 798.61,317.15 798.18,316.36 798.55,315.55 799.71,314.70"/>
    </edge>
    <edge id=":1253678869_12" function="internal">
        <lane id=":1253678869_12_0" index="0" disallow="tram rail_urban rail rail_electric rail_fast ship container cable_car subway aircraft wheelchair scooter drone" speed="9.02" length="15.69" shape="790.29,303.74 791.87,308.64 793.96,312.10 796.58,314.12 799.71,314.70"/>
    </edge>
    <edge id=":1253678869_13" function="internal">
        <lane id=":1253678869_13_0" index="0" disallow="tram rail_urban rail rail_electric rail_fast ship container cable_car subway aircraft wheelchair scooter drone" speed="22.22" length="21.00" shape="790.29,303.74 795.46,323.94"/>
        <lane id=":1253678869_13_1" index="1" disallow="tram rail_urban rail rail_electric rail_fast ship container cable_car subway aircraft wheelchair scooter drone" speed="22.22" length="21.00" shape="787.18,304.47 792.38,324.81"/>
        <lane id=":1253678869_13_2" index="2" disallow="tram rail_urban rail rail_electric rail_fast ship container cable_car subway aircraft wheelchair scooter drone" speed="22.22" length="21.00" shape="784.06,305.20 789.30,325.69"/>
    </edge>
    <edge id=":1253678869_16" function="internal">
        <lane id=":1253678869_16_0" index="0" disallow="tram rail_urban rail rail_electric rail_fast ship container cable_car subway aircraft wheelchair scooter drone" speed="9.41" length="3.96" width="5.20" shape="784.06,305.20 784.32,309.15"/>
    </edge>
    <edge id=":1253678869_17" function="internal">
        <lane id=":1253678869_17_0" index="0" disallow="tram rail_urban rail rail_electric rail_fast ship container cable_car subway aircraft wheelchair scooter drone" speed="5.47" length="1.47" width="3.10" shape="784.06,305.20 783.53,306.61"/>
        <lane id=":1253678869_17_1" index="1" disallow="tram rail_urban rail rail_electric rail_fast ship container cable_car subway aircraft wheelchair scooter drone" speed="4.63" length="1.47" width="3.00" shape="784.06,305.20 783.53,306.61"/>
        <lane id=":1253678869_17_2" index="2" disallow="tram rail_urban rail rail_electric rail_fast ship container cable_car subway aircraft wheelchair scooter drone" speed="3.61" length="1.47" width="3.00" shape="784.06,305.20 783.57,306.51"/>
    </edge>
    <edge id=":1253678869_26" function="internal">
        <lane id=":1253678869_26_0" index="0" disallow="tram rail_urban rail rail_electric rail_fast ship container cable_car subway aircraft wheelchair scooter drone" speed="9.41" length="19.83" width="5.20" shape="784.32,309.15 784.46,311.45 782.33,315.88 777.65,318.48 770.43,319.27"/>
    </edge>
    <edge id=":1253678869_27" function="internal">
        <lane id=":1253678869_27_0" index="0" disallow="tram rail_urban rail rail_electric rail_fast ship container cable_car subway aircraft wheelchair scooter drone" speed="5.47" length="11.85" width="3.10" shape="783.53,306.61 782.61,309.06 780.65,310.69 778.16,310.10 775.15,307.28"/>
        <lane id=":1253678869_27_1" index="0" disallow="tram rail_urban rail rail_electric rail_fast ship container cable_car subway aircraft wheelchair scooter drone" speed="4.63" length="7.40" width="3.00" shape="783.53,306.61 783.10,307.77 781.78,308.86 780.13,308.47 778.12,306.59"/>
        <lane id=":1253678869_27_2" index="0" disallow="tram rail_urban rail rail_electric rail_fast ship container cable_car subway aircraft wheelchair scooter drone" speed="3.61" length="3.13" width="3.00" shape="783.57,306.51 782.90,307.06 782.06,306.86 781.04,305.90"/>
    </edge>
    <edge id=":1253678869_20" function="internal">
        <lane id=":1253678869_20_0" index="0" disallow="tram rail_urban rail rail_electric rail_fast ship container cable_car subway aircraft wheelchair scooter drone" speed="6.52" length="9.99" width="3.10" shape="770.51,314.07 773.14,313.68 774.79,312.42 775.46,310.29 775.15,307.28"/>
    </edge>
    <edge id=":1253678869_21" function="internal">
        <lane id=":1253678869_21_0" index="0" disallow="tram rail_urban rail rail_electric rail_fast ship container cable_car subway aircraft wheelchair scooter drone" speed="13.89" length="29.21" shape="770.51,314.07 799.71,314.70"/>
    </edge>
    <edge id=":1253678869_22" function="internal">
        <lane id=":1253678869_22_0" index="0" disallow="tram rail_urban rail rail_electric rail_fast ship container cable_car subway aircraft wheelchair scooter drone" speed="11.66" length="23.82" shape="770.51,314.07 777.52,314.88 782.99,317.09 786.92,320.69 789.30,325.69"/>
    </edge>
    <edge id=":1253678869_23" function="internal">
        <lane id=":1253678869_23_0" index="0" disallow="tram rail_urban rail rail_electric rail_fast ship container cable_car subway aircraft wheelchair scooter drone" speed="4.65" length="7.59" width="5.20" shape="770.51,314.07 772.44,315.40 773.07,316.71 772.40,318.00 770.43,319.27"/>
    </edge>
    <edge id=":2225388597_0" function="internal">
        <lane id=":2225388597_0_0" index="0" disallow="tram rail_urban rail rail_electric rail_fast ship container cable_car subway aircraft wheelchair scooter drone" speed="7.99" length="12.57" width="3.60" shape="592.99,119.41 590.58,119.38 588.30,120.62 586.17,123.13 584.17,126.90"/>
    </edge>
    <edge id=":2225388597_1" function="internal">
        <lane id=":2225388597_1_0" index="0" disallow="tram rail_urban rail rail_electric rail_fast ship container cable_car subway aircraft wheelchair scooter drone" speed="27.78" length="15.65" width="6.00" shape="592.99,119.41 588.08,118.37 584.25,117.99 580.93,117.80 577.50,117.34"/>
    </edge>
    <edge id=":2225388597_2" function="internal">
        <lane id=":2225388597_2_0" index="0" disallow="tram rail_urban rail rail_electric rail_fast ship container cable_car subway aircraft wheelchair scooter drone" speed="6.57" length="10.58" width="6.00" shape="580.87,125.46 581.78,122.39 581.52,120.02 580.10,118.33 577.50,117.34"/>
    </edge>
    <edge id=":2225388597_3" function="internal">
        <lane id=":2225388597_3_0" index="0" disallow="tram rail_urban rail rail_electric rail_fast ship container cable_car subway aircraft wheelchair scooter drone" speed="3.87" length="5.26" width="3.60" shape="580.87,125.46 582.24,124.59 583.24,124.53 583.89,125.31 584.17,126.90"/>
    </edge>
    <edge id=":2410540506_0" function="internal">
        <lane id=":2410540506_0_0" index="0" disallow="tram rail_urban rail rail_electric rail_fast ship container cable_car subway aircraft wheelchair scooter drone" speed="8.87" length="13.16" shape="34.29,79.05 33.22,76.78 31.07,74.99 27.85,73.67 23.55,72.84"/>
    </edge>
    <edge id=":2410540506_1" function="internal">
        <lane id=":2410540506_1_0" index="0" disallow="tram rail_urban rail rail_electric rail_fast ship container cable_car subway aircraft wheelchair scooter drone" speed="22.22" length="14.60" shape="34.29,79.05 34.13,75.76 34.80,72.75 35.68,69.29 36.16,64.67"/>
    </edge>
    <edge id=":2410540506_2" function="internal">
        <lane id=":2410540506_2_0" index="0" disallow="tram rail_urban rail rail_electric rail_fast ship container cable_car subway aircraft wheelchair scooter drone" speed="6.28" length="9.04" shape="23.94,69.66 26.46,69.61 28.27,68.75 29.37,67.07 29.76,64.58"/>
        <lane id=":2410540506_2_1" index="1" disallow="tram rail_urban rail rail_electric rail_fast ship container cable_car subway aircraft wheelchair scooter drone" speed="7.12" length="11.93" shape="23.94,69.66 27.86,69.76 30.67,68.95 32.37,67.24 32.96,64.63"/>
        <lane id=":2410540506_2_2" index="2" disallow="tram rail_urban rail rail_electric rail_fast ship container cable_car subway aircraft wheelchair scooter drone" speed="7.90" length="14.95" shape="23.94,69.66 29.26,69.91 33.06,69.16 35.37,67.41 36.16,64.67"/>
    </edge>
    <edge id=":2636699397_0" function="internal">
        <lane id=":2636699397_0_0" index="0" disallow="tram rail_urban rail rail_electric rail_fast ship container cable_car subway aircraft wheelchair scooter drone" speed="9.52" length="16.50" shape="456.54,43.31 457.08,48.38 458.54,52.27 460.92,54.98 464.23,56.51"/>
    </edge>
    <edge id=":2636699397_1" function="internal">
        <lane id=":2636699397_1_0" index="0" disallow="tram rail_urban rail rail_electric rail_fast ship container cable_car subway aircraft wheelchair scooter drone" speed="3.71" length="4.88" shape="456.54,43.31 456.12,44.76 455.44,45.41 454.52,45.26 453.35,44.31"/>
    </edge>
    <edge id=":2636699397_2" function="internal">
        <lane id=":2636699397_2_0" index="0" disallow="tram rail_urban rail rail_electric rail_fast ship container cable_car subway aircraft wheelchair scooter drone" speed="6.00" length="8.87" shape="448.07,49.38 450.40,49.52 452.06,48.73 453.04,46.99 453.35,44.31"/>
    </edge>
    <edge id=":2636699397_3" function="internal">
        <lane id=":2636699397_3_0" index="0" disallow="tram rail_urban rail rail_electric rail_fast ship container cable_car subway aircraft wheelchair scooter drone" speed="20.84" length="17.73" shape="448.07,49.38 453.02,51.03 456.16,52.89 459.30,54.77 464.23,56.51"/>
        <lane id=":2636699397_3_1" index="1" disallow="tram rail_urban rail rail_electric rail_fast ship container cable_car subway aircraft wheelchair scooter drone" speed="20.84" length="17.73" shape="447.35,52.49 452.28,54.15 455.41,56.00 458.54,57.88 463.45,59.61"/>
    </edge>
    <edge id=":2639881336_0" function="internal">
        <lane id=":2639881336_0_0" index="0" disallow="tram rail_urban rail rail_electric rail_fast ship container cable_car subway aircraft wheelchair scooter drone" speed="13.89" length="15.97" shape="633.39,644.21 628.99,645.98 625.93,647.09 622.80,647.93 618.16,648.89"/>
    </edge>
    <edge id=":2639881336_1" function="internal">
        <lane id=":2639881336_1_0" index="0" disallow="tram rail_urban rail rail_electric rail_fast ship container cable_car subway aircraft wheelchair scooter drone" speed="8.36" length="4.03" shape="633.39,644.21 629.44,645.03"/>
    </edge>
    <edge id=":2639881336_2" function="internal">
        <lane id=":2639881336_2_0" index="0" disallow="tram rail_urban rail rail_electric rail_fast ship container cable_car subway aircraft wheelchair scooter drone" speed="3.65" length="1.44" shape="633.39,644.21 631.97,643.92"/>
    </edge>
    <edge id=":2639881336_9" function="internal">
        <lane id=":2639881336_9_0" index="0" disallow="tram rail_urban rail rail_electric rail_fast ship container cable_car subway aircraft wheelchair scooter drone" speed="8.36" length="14.11" shape="629.44,645.03 628.92,645.13 625.42,643.93 622.87,640.60 621.28,635.14"/>
    </edge>
    <edge id=":2639881336_10" function="internal">
        <lane id=":2639881336_10_0" index="0" disallow="tram rail_urban rail rail_electric rail_fast ship container cable_car subway aircraft wheelchair scooter drone" speed="3.65" length="3.23" shape="631.97,643.92 631.30,643.32 631.38,642.43 632.19,641.24"/>
    </edge>
    <edge id=":2639881336_3" function="internal">
        <lane id=":2639881336_3_0" index="0" disallow="tram rail_urban rail rail_electric rail_fast ship container cable_car subway aircraft wheelchair scooter drone" speed="6.95" length="12.15" shape="624.44,634.61 625.51,638.44 627.15,640.83 629.38,641.76 632.19,641.24"/>
    </edge>
    <edge id=":2639881336_4" function="internal">
        <lane id=":2639881336_4_0" index="0" disallow="tram rail_urban rail rail_electric rail_fast ship container cable_car subway aircraft wheelchair scooter drone" speed="8.91" length="17.50" shape="624.44,634.61 624.85,640.23 623.94,644.49 621.71,647.38 618.16,648.89"/>
    </edge>
    <edge id=":2639881336_5" function="internal">
        <lane id=":2639881336_5_0" index="0" disallow="tram rail_urban rail rail_electric rail_fast ship container cable_car subway aircraft wheelchair scooter drone" speed="3.65" length="4.67" shape="624.44,634.61 623.85,635.92 623.13,636.45 622.27,636.19 621.28,635.14"/>
    </edge>
    <edge id=":2639881336_6" function="internal">
        <lane id=":2639881336_6_0" index="0" disallow="tram rail_urban rail rail_electric rail_fast ship container cable_car subway aircraft wheelchair scooter drone" speed="7.61" length="12.49" shape="617.54,645.75 619.79,644.69 621.16,642.57 621.66,639.39 621.28,635.14"/>
    </edge>
    <edge id=":2639881336_7" function="internal">
        <lane id=":2639881336_7_0" index="0" disallow="tram rail_urban rail rail_electric rail_fast ship container cable_car subway aircraft wheelchair scooter drone" speed="13.89" length="15.37" shape="617.54,645.75 622.00,644.82 625.02,644.01 627.96,642.94 632.19,641.24"/>
    </edge>
    <edge id=":2639881336_8" function="internal">
        <lane id=":2639881336_8_0" index="0" disallow="tram rail_urban rail rail_electric rail_fast ship container cable_car subway aircraft wheelchair scooter drone" speed="3.65" length="1.44" shape="617.54,645.75 618.87,646.31"/>
    </edge>
    <edge id=":2639881336_11" function="internal">
        <lane id=":2639881336_11_0" index="0" disallow="tram rail_urban rail rail_electric rail_fast ship container cable_car subway aircraft wheelchair scooter drone" speed="3.65" length="3.23" shape="618.87,646.31 619.42,647.01 619.18,647.88 618.16,648.89"/>
    </edge>
    <edge id=":3320533086_0" function="internal">
        <lane id=":3320533086_0_0" index="0" disallow="tram rail_urban rail rail_electric rail_fast ship container cable_car subway aircraft wheelchair scooter drone" speed="6.00" length="9.08" shape="827.87,562.89 827.05,560.43 825.68,559.05 823.76,558.75 821.29,559.55"/>
    </edge>
    <edge id=":3320533086_1" function="internal">
        <lane id=":3320533086_1_0" index="0" disallow="tram rail_urban rail rail_electric rail_fast ship container cable_car subway aircraft wheelchair scooter drone" speed="22.22" length="21.21" width="3.50" shape="827.87,562.89 823.97,542.04"/>
        <lane id=":3320533086_1_1" index="1" disallow="tram rail_urban rail rail_electric rail_fast ship container cable_car subway aircraft wheelchair scooter drone" speed="22.22" length="21.21" shape="831.02,562.33 827.26,541.45"/>
    </edge>
    <edge id=":3320533086_3" function="internal">