<additional>
<vType id="motorcycle" 
        
       length="1.5" 
       minGap="0.5" 
       lcStrategic="1.5" 
       lcKeepRight="0" 
       maxSpeed="27.78" 
       width="0.8"     
       accel="4.0"
       speedFactor="1.5"
       vClass="motorcycle"/>
    <vType id="passenger" 
       vClass="passenger" 
       minGap="1"       
       lcStrategic="0.8"   
       lcKeepRight="0.1"
       maxSpeed="33.33"
       speedFactor="1.2"
       length="5.0"
       width="1.8"
       />

       </additional>