<?xml version="1.0" encoding="UTF-8"?>

<!-- generated on 2025-11-04 19:22:58 by Eclipse SUMO netedit Version 1.24.0
-->

<routes xmlns:xsi="http://www.w3.org/2001/XMLSchema-instance" xsi:noNamespaceSchemaLocation="http://sumo.dlr.de/xsd/routes_file.xsd">
    <!-- Vehicles, persons and containers (sorted by depart) -->
    <flow id="car1" type="passenger" begin="0.00" from="-586664246#2" to="-350146688#6" end="3600.00" period="400.00"/>
    <flow id="car10" type="passenger" begin="0.00" from="587800915#0" to="586657908#0" end="3600.00" period="400.00"/>
    <flow id="car100" type="passenger" begin="0.00" from="898487493#0" to="898487483#0" end="3600.00" period="400.00"/>
    <flow id="car101" type="passenger" begin="0.00" from="615037319" to="-350146685#1" end="3600.00" period="400.00"/>
    <flow id="car102" type="passenger" begin="0.00" from="258656153#1" to="-350146688#6" end="3600.00" period="400.00"/>
    <flow id="car103" type="passenger" begin="0.00" from="109505208#2" to="-109505208#1" end="3600.00" period="400.00"/>
    <flow id="car104" type="passenger" begin="0.00" from="109505207#0" to="898487493#2" end="3600.00" period="400.00"/>
    <flow id="car105" type="passenger" begin="0.00" from="-586664246#2" to="587800915#3" end="3600.00" period="400.00"/>
    <flow id="car106" type="passenger" begin="0.00" from="253653636" to="1305093055#1" end="3600.00" period="400.00"/>
    <flow id="car107" type="passenger" begin="0.00" from="898487483#1" to="977815031" end="3600.00" period="400.00"/>
    <flow id="car108" type="passenger" begin="0.00" from="350146688#2" to="586657908#2" end="3600.00" period="400.00"/>
    <flow id="car109" type="passenger" begin="0.00" from="-350146685#1" to="-739723515#1" end="3600.00" period="400.00"/>
    <flow id="car110" type="passenger" begin="0.00" from="898487493#0" to="362714491" end="3600.00" period="400.00"/>
    <flow id="car111" type="passenger" begin="0.00" from="350146688#0" to="586664246#0" end="3600.00" period="400.00"/>
    <flow id="car112" type="passenger" begin="0.00" from="-109505208#1" to="362714491" end="3600.00" period="400.00"/>
    <flow id="car113" type="passenger" begin="0.00" from="323987231#0" to="890146630" end="3600.00" period="400.00"/>
    <flow id="car114" type="passenger" begin="0.00" from="-350146685#1" to="898487493#1" end="3600.00" period="400.00"/>
    <flow id="car115" type="passenger" begin="0.00" from="-1117713207#1" to="-350146688#3" end="3600.00" period="400.00"/>
    <flow id="car116" type="passenger" begin="0.00" from="350146691#0" to="586657042#1" end="3600.00" period="400.00"/>
    <flow id="car117" type="passenger" begin="0.00" from="-555600348" to="-258656153#3" end="3600.00" period="400.00"/>
    <flow id="car118" type="passenger" begin="0.00" from="890146631#1" to="-350146691#1" end="3600.00" period="400.00"/>
    <flow id="car12" type="passenger" begin="0.00" from="898487483#1" to="109505204#0" end="3600.00" period="400.00"/>
    <flow id="car120" type="passenger" begin="0.00" from="1117713207#0" to="362714491" end="3600.00" period="400.00"/>
    <flow id="car121" type="passenger" begin="0.00" from="341096510#1" to="898487483#1" end="3600.00" period="400.00"/>
    <flow id="car122" type="passenger" begin="0.00" from="-350146691#0" to="586657908#2" end="3600.00" period="400.00"/>
    <flow id="car123" type="passenger" begin="0.00" from="-555600352" to="1117713206" end="3600.00" period="400.00"/>
    <flow id="car124" type="passenger" begin="0.00" from="515970250" to="-739723515#1" end="3600.00" period="400.00"/>
    <flow id="car125" type="passenger" begin="0.00" from="-898487483#0" to="586664246#2" end="3600.00" period="400.00"/>
    <flow id="car126" type="passenger" begin="0.00" from="-109505208#4" to="258656153#0" end="3600.00" period="400.00"/>
    <flow id="car128" type="passenger" begin="0.00" from="-109505208#4" to="-350146688#6" end="3600.00" period="400.00"/>
    <flow id="car129" type="passenger" begin="0.00" from="-586664246#2" to="898487483#0" end="3600.00" period="400.00"/>
    <flow id="car13" type="passenger" begin="0.00" from="-258656153#0" to="-258656153#0" end="3600.00" period="400.00"/>
    <flow id="car130" type="passenger" begin="0.00" from="890146631#0" to="890146631#1" end="3600.00" period="400.00"/>
    <flow id="car131" type="passenger" begin="0.00" from="109505207#0" to="-341096510#1" end="3600.00" period="400.00"/>
    <flow id="car133" type="passenger" begin="0.00" from="350146691#1" to="977815031" end="3600.00" period="400.00"/>
    <flow id="car134" type="passenger" begin="0.00" from="364177895#0" to="-109505204#0" end="3600.00" period="400.00"/>
    <flow id="car135" type="passenger" begin="0.00" from="587800915#3" to="-739723515#1" end="3600.00" period="400.00"/>
    <flow id="car136" type="passenger" begin="0.00" from="367762382#0" to="898487483#1" end="3600.00" period="400.00"/>
    <flow id="car137" type="passenger" begin="0.00" from="-341096510#1" to="-258656153#2" end="3600.00" period="400.00"/>
    <flow id="car138" type="passenger" begin="0.00" from="-258656153#2" to="350146691#0" end="3600.00" period="400.00"/>
    <flow id="car139" type="passenger" begin="0.00" from="-586664246#2" to="362871972#0" end="3600.00" period="400.00"/>
    <flow id="car14" type="passenger" begin="0.00" from="615037319" to="362871972#0" end="3600.00" period="400.00"/>
    <flow id="car140" type="passenger" begin="0.00" from="586657042#3" to="-350146688#5" end="3600.00" period="400.00"/>
    <flow id="car143" type="passenger" begin="0.00" from="615037319" to="-258656153#0" end="3600.00" period="400.00"/>
    <flow id="car144" type="passenger" begin="0.00" from="1305093055#0" to="-586664246#4" end="3600.00" period="400.00"/>
    <flow id="car145" type="passenger" begin="0.00" from="-109505204#0" to="586664246#3" end="3600.00" period="400.00"/>
    <flow id="car147" type="passenger" begin="0.00" from="586657908#2" to="350146688#6" end="3600.00" period="400.00"/>
    <flow id="car148" type="passenger" begin="0.00" from="1305093055#0" to="-109505204#0" end="3600.00" period="400.00"/>
    <flow id="car149" type="passenger" begin="0.00" from="-109505208#4" to="890146631#2" end="3600.00" period="400.00"/>
    <flow id="car15" type="passenger" begin="0.00" from="587800915#0" to="586657908#3" end="3600.00" period="400.00"/>
    <flow id="car150" type="passenger" begin="0.00" from="890146631#2" to="350146688#6" end="3600.00" period="400.00"/>
    <flow id="car152" type="passenger" begin="0.00" from="-350146685#1" to="-258656153#3" end="3600.00" period="400.00"/>
    <flow id="car155" type="passenger" begin="0.00" from="890146631#2" to="-350146688#5" end="3600.00" period="400.00"/>
    <flow id="car156" type="passenger" begin="0.00" from="-555600352" to="-258656153#0" end="3600.00" period="400.00"/>
    <flow id="car157" type="passenger" begin="0.00" from="586664246#2" to="890146631#2" end="3600.00" period="400.00"/>
    <flow id="car159" type="passenger" begin="0.00" from="-350146685#1" to="898487483#0" end="3600.00" period="400.00"/>
    <flow id="car16" type="passenger" begin="0.00" from="350146685#0" to="898487493#1" end="3600.00" period="400.00"/>
    <flow id="car161" type="passenger" begin="0.00" from="587800915#0" to="890146631#1" end="3600.00" period="400.00"/>
    <flow id="car162" type="passenger" begin="0.00" from="-109505204#2" to="586657908#3" end="3600.00" period="400.00"/>
    <flow id="car165" type="passenger" begin="0.00" from="587800915#0" to="-586664246#2" end="3600.00" period="400.00"/>
    <flow id="car166" type="passenger" begin="0.00" from="586664246#2" to="-258656153#2" end="3600.00" period="400.00"/>
    <flow id="car167" type="passenger" begin="0.00" from="890146631#0" to="890146631#0" end="3600.00" period="400.00"/>
    <flow id="car168" type="passenger" begin="0.00" from="-350146691#1" to="888879165#0" end="3600.00" period="400.00"/>
    <flow id="car169" type="passenger" begin="0.00" from="253653636" to="-888879166" end="3600.00" period="400.00"/>
    <flow id="car17" type="passenger" begin="0.00" from="109505207#0" to="350146688#6" end="3600.00" period="400.00"/>
    <flow id="car170" type="passenger" begin="0.00" from="586664246#3" to="-350146691#0" end="3600.00" period="400.00"/>
    <flow id="car171" type="passenger" begin="0.00" from="-109505204#2" to="-350146688#3" end="3600.00" period="400.00"/>
    <flow id="car173" type="passenger" begin="0.00" from="898487493#0" to="-586664246#4" end="3600.00" period="400.00"/>
    <flow id="car175" type="passenger" begin="0.00" from="898487493#1" to="350146688#5" end="3600.00" period="400.00"/>
    <flow id="car176" type="passenger" begin="0.00" from="898487483#0" to="-258656153#2" end="3600.00" period="400.00"/>
    <flow id="car177" type="passenger" begin="0.00" from="898487493#0" to="-350146688#1" end="3600.00" period="400.00"/>
    <flow id="car178" type="passenger" begin="0.00" from="898487493#0" to="-586664246#2" end="3600.00" period="400.00"/>
    <flow id="car179" type="passenger" begin="0.00" from="-258656153#2" to="253653636" end="3600.00" period="400.00"/>
    <flow id="car180" type="passenger" begin="0.00" from="586657908#0" to="-888879166" end="3600.00" period="400.00"/>
    <flow id="car181" type="passenger" begin="0.00" from="350146691#1" to="350146685#0" end="3600.00" period="400.00"/>
    <flow id="car182" type="passenger" begin="0.00" from="109505207#3" to="350146691#1" end="3600.00" period="400.00"/>
    <flow id="car183" type="passenger" begin="0.00" from="-586664246#1" to="586657908#0" end="3600.00" period="400.00"/>
    <flow id="car184" type="passenger" begin="0.00" from="-109505204#0" to="898487483#0" end="3600.00" period="400.00"/>
    <flow id="car185" type="passenger" begin="0.00" from="350146685#0" to="586657908#2" end="3600.00" period="400.00"/>
    <flow id="car186" type="passenger" begin="0.00" from="586657908#2" to="586657042#0" end="3600.00" period="400.00"/>
    <flow id="car187" type="passenger" begin="0.00" from="109505204#1" to="-109505208#4" end="3600.00" period="400.00"/>
    <flow id="car188" type="passenger" begin="0.00" from="367762382#0" to="109505204#0" end="3600.00" period="400.00"/>
    <flow id="car189" type="passenger" begin="0.00" from="-888879166" to="890146630" end="3600.00" period="400.00"/>
    <flow id="car190" type="passenger" begin="0.00" from="586657042#3" to="-739723515#1" end="3600.00" period="400.00"/>
    <flow id="car191" type="passenger" begin="0.00" from="-888879166" to="1117713207#0" end="3600.00" period="400.00"/>
    <flow id="car192" type="passenger" begin="0.00" from="109505208#2" to="-739723515#1" end="3600.00" period="400.00"/>
    <flow id="car193" type="passenger" begin="0.00" from="-258656153#3" to="1117713207#0" end="3600.00" period="400.00"/>
    <flow id="car194" type="passenger" begin="0.00" from="898487483#0" to="586657042#1" end="3600.00" period="400.00"/>
    <flow id="car195" type="passenger" begin="0.00" from="890146631#2" to="362871972#1" end="3600.00" period="400.00"/>
    <flow id="car196" type="passenger" begin="0.00" from="-888879165#3" to="350146688#6" end="3600.00" period="400.00"/>
    <flow id="car197" type="passenger" begin="0.00" from="-109505204#0" to="-586664246#4" end="3600.00" period="400.00"/>
    <flow id="car198" type="passenger" begin="0.00" from="1305093055#0" to="362714491" end="3600.00" period="400.00"/>
    <flow id="car199" type="passenger" begin="0.00" from="364177895#0" to="258656153#1" end="3600.00" period="400.00"/>
    <flow id="car2" type="passenger" begin="0.00" from="586657908#0" to="586657042#1" end="3600.00" period="400.00"/>
    <flow id="car20" type="passenger" begin="0.00" from="586657042#1" to="-109505207#4" end="3600.00" period="400.00"/>
    <flow id="car200" type="passenger" begin="0.00" from="1307885878" to="-350146688#6" end="3600.00" period="400.00"/>
    <flow id="car202" type="passenger" begin="0.00" from="586664246#3" to="-350146685#1" end="3600.00" period="400.00"/>
    <flow id="car203" type="passenger" begin="0.00" from="-1117713207#1" to="350146688#2" end="3600.00" period="400.00"/>
    <flow id="car205" type="passenger" begin="0.00" from="587800915#3" to="586664246#2" end="3600.00" period="400.00"/>
    <flow id="car206" type="passenger" begin="0.00" from="515970250" to="-350146691#0" end="3600.00" period="400.00"/>
    <flow id="car207" type="passenger" begin="0.00" from="-350146691#0" to="-109505204#2" end="3600.00" period="400.00"/>
    <flow id="car208" type="passenger" begin="0.00" from="-555600352" to="258656153#3" end="3600.00" period="400.00"/>
    <flow id="car209" type="passenger" begin="0.00" from="615037319" to="-109505208#4" end="3600.00" period="400.00"/>
    <flow id="car21" type="passenger" begin="0.00" from="-555600348" to="-586664246#4" end="3600.00" period="400.00"/>
    <flow id="car211" type="passenger" begin="0.00" from="-350146688#6" to="586657042#3" end="3600.00" period="400.00"/>
    <flow id="car212" type="passenger" begin="0.00" from="258656153#3" to="-350146691#1" end="3600.00" period="400.00"/>
    <flow id="car213" type="passenger" begin="0.00" from="364177895#0" to="-109505204#0" end="3600.00" period="400.00"/>
    <flow id="car214" type="passenger" begin="0.00" from="586657908#3" to="586664246#3" end="3600.00" period="400.00"/>
    <flow id="car215" type="passenger" begin="0.00" from="-258656153#2" to="1305093055#1" end="3600.00" period="400.00"/>
    <flow id="car216" type="passenger" begin="0.00" from="-350146688#5" to="898487493#0" end="3600.00" period="400.00"/>
    <flow id="car217" type="passenger" begin="0.00" from="341096510#1" to="-109505207#4" end="3600.00" period="400.00"/>
    <flow id="car218" type="passenger" begin="0.00" from="-555600352" to="890146630" end="3600.00" period="400.00"/>
    <flow id="car219" type="passenger" begin="0.00" from="253653636" to="587800918#1" end="3600.00" period="400.00"/>
    <flow id="car22" type="passenger" begin="0.00" from="-1117713207#1" to="-350146691#0" end="3600.00" period="400.00"/>
    <flow id="car220" type="passenger" begin="0.00" from="367762382#0" to="977815031" end="3600.00" period="400.00"/>
    <flow id="car221" type="passenger" begin="0.00" from="350146691#0" to="898487493#0" end="3600.00" period="400.00"/>
    <flow id="car222" type="passenger" begin="0.00" from="890146631#1" to="362871972#1" end="3600.00" period="400.00"/>
    <flow id="car223" type="passenger" begin="0.00" from="586657042#3" to="350146685#0" end="3600.00" period="400.00"/>
    <flow id="car225" type="passenger" begin="0.00" from="890146631#2" to="586664246#0" end="3600.00" period="400.00"/>
    <flow id="car226" type="passenger" begin="0.00" from="258656153#1" to="-586664246#1" end="3600.00" period="400.00"/>
    <flow id="car227" type="passenger" begin="0.00" from="-555600352" to="555600348" end="3600.00" period="400.00"/>
    <flow id="car228" type="passenger" begin="0.00" from="586664246#0" to="350146688#2" end="3600.00" period="400.00"/>
    <flow id="car229" type="passenger" begin="0.00" from="362871972#0" to="-586664246#2" end="3600.00" period="400.00"/>
    <flow id="car23" type="passenger" begin="0.00" from="-258656153#0" to="-586664246#4" end="3600.00" period="400.00"/>
    <flow id="car230" type="passenger" begin="0.00" from="-109505208#4" to="-586664246#4" end="3600.00" period="400.00"/>
    <flow id="car231" type="passenger" begin="0.00" from="-586664246#2" to="-898487483#0" end="3600.00" period="400.00"/>
    <flow id="car232" type="passenger" begin="0.00" from="350146688#0" to="-323987231#0" end="3600.00" period="400.00"/>
    <flow id="car233" type="passenger" begin="0.00" from="-555600348" to="586657042#3" end="3600.00" period="400.00"/>
    <flow id="car234" type="passenger" begin="0.00" from="586657042#1" to="-109505208#1" end="3600.00" period="400.00"/>
    <flow id="car235" type="passenger" begin="0.00" from="109505208#2" to="350146688#6" end="3600.00" period="400.00"/>
    <flow id="car236" type="passenger" begin="0.00" from="1117713207#0" to="-350146688#5" end="3600.00" period="400.00"/>
    <flow id="car238" type="passenger" begin="0.00" from="350146688#6" to="586657042#3" end="3600.00" period="400.00"/>
    <flow id="car240" type="passenger" begin="0.00" from="109505207#0" to="-109505204#0" end="3600.00" period="400.00"/>
    <flow id="car241" type="passenger" begin="0.00" from="109505204#0" to="586664246#2" end="3600.00" period="400.00"/>
    <flow id="car242" type="passenger" begin="0.00" from="615037319" to="898487493#0" end="3600.00" period="400.00"/>
    <flow id="car243" type="passenger" begin="0.00" from="1117713207#0" to="586664246#0" end="3600.00" period="400.00"/>
    <flow id="car244" type="passenger" begin="0.00" from="350146688#0" to="362871972#0" end="3600.00" period="400.00"/>
    <flow id="car245" type="passenger" begin="0.00" from="-350146691#1" to="-350146688#6" end="3600.00" period="400.00"/>
    <flow id="car246" type="passenger" begin="0.00" from="1307885878" to="-109505207#2" end="3600.00" period="400.00"/>
    <flow id="car248" type="passenger" begin="0.00" from="109505208#2" to="-350146685#1" end="3600.00" period="400.00"/>
    <flow id="car249" type="passenger" begin="0.00" from="258656153#0" to="-258656153#3" end="3600.00" period="400.00"/>
    <flow id="car25" type="passenger" begin="0.00" from="109505207#0" to="-350146688#5" end="3600.00" period="400.00"/>
    <flow id="car250" type="passenger" begin="0.00" from="362871972#0" to="-109505207#2" end="3600.00" period="400.00"/>
    <flow id="car251" type="passenger" begin="0.00" from="109505207#3" to="350146691#0" end="3600.00" period="400.00"/>
    <flow id="car252" type="passenger" begin="0.00" from="-109505207#2" to="555600348" end="3600.00" period="400.00"/>
    <flow id="car253" type="passenger" begin="0.00" from="-341096510#1" to="258656153#1" end="3600.00" period="400.00"/>
    <flow id="car254" type="passenger" begin="0.00" from="-109505207#4" to="109505207#3" end="3600.00" period="400.00"/>
    <flow id="car255" type="passenger" begin="0.00" from="-350146691#1" to="-898487483#0" end="3600.00" period="400.00"/>
    <flow id="car256" type="passenger" begin="0.00" from="586657908#3" to="109505207#3" end="3600.00" period="400.00"/>
    <flow id="car257" type="passenger" begin="0.00" from="586657908#3" to="890146629" end="3600.00" period="400.00"/>
    <flow id="car258" type="passenger" begin="0.00" from="-586664246#1" to="-1117713207#1" end="3600.00" period="400.00"/>
    <flow id="car259" type="passenger" begin="0.00" from="-109505204#2" to="350146688#5" end="3600.00" period="400.00"/>
    <flow id="car26" type="passenger" begin="0.00" from="-586664246#2" to="898487483#1" end="3600.00" period="400.00"/>
    <flow id="car261" type="passenger" begin="0.00" from="364177895#0" to="587800915#3" end="3600.00" period="400.00"/>
    <flow id="car262" type="passenger" begin="0.00" from="364177895#0" to="586664246#2" end="3600.00" period="400.00"/>
    <flow id="car263" type="passenger" begin="0.00" from="898487483#1" to="-350146688#5" end="3600.00" period="400.00"/>
    <flow id="car264" type="passenger" begin="0.00" from="-109505204#2" to="-341096510#1" end="3600.00" period="400.00"/>
    <flow id="car265" type="passenger" begin="0.00" from="-258656153#3" to="586657042#0" end="3600.00" period="400.00"/>
    <flow id="car266" type="passenger" begin="0.00" from="350146688#2" to="-350146688#6" end="3600.00" period="400.00"/>
    <flow id="car267" type="passenger" begin="0.00" from="586657042#1" to="586664246#3" end="3600.00" period="400.00"/>
    <flow id="car268" type="passenger" begin="0.00" from="-350146688#3" to="362871972#1" end="3600.00" period="400.00"/>
    <flow id="car269" type="passenger" begin="0.00" from="586657908#2" to="-258656153#2" end="3600.00" period="400.00"/>
    <flow id="car27" type="passenger" begin="0.00" from="364177895#0" to="362871972#1" end="3600.00" period="400.00"/>
    <flow id="car270" type="passenger" begin="0.00" from="587800915#3" to="898487493#1" end="3600.00" period="400.00"/>
    <flow id="car271" type="passenger" begin="0.00" from="-258656153#2" to="-109505204#2" end="3600.00" period="400.00"/>
    <flow id="car272" type="passenger" begin="0.00" from="-888879166" to="586657042#1" end="3600.00" period="400.00"/>
    <flow id="car273" type="passenger" begin="0.00" from="898487483#1" to="1117713206" end="3600.00" period="400.00"/>
    <flow id="car274" type="passenger" begin="0.00" from="586657042#3" to="-109505208#4" end="3600.00" period="400.00"/>
    <flow id="car276" type="passenger" begin="0.00" from="-258656153#0" to="586664246#3" end="3600.00" period="400.00"/>
    <flow id="car277" type="passenger" begin="0.00" from="615037319" to="362871972#0" end="3600.00" period="400.00"/>
    <flow id="car278" type="passenger" begin="0.00" from="-258656153#3" to="898487493#2" end="3600.00" period="400.00"/>
    <flow id="car279" type="passenger" begin="0.00" from="586664246#2" to="109505204#1" end="3600.00" period="400.00"/>
    <flow id="car28" type="passenger" begin="0.00" from="-350146688#5" to="586657908#3" end="3600.00" period="400.00"/>
    <flow id="car280" type="passenger" begin="0.00" from="1305093055#0" to="109505207#3" end="3600.00" period="400.00"/>
    <flow id="car281" type="passenger" begin="0.00" from="323987231#0" to="109505204#0" end="3600.00" period="400.00"/>
    <flow id="car282" type="passenger" begin="0.00" from="615037319" to="888879165#0" end="3600.00" period="400.00"/>
    <flow id="car283" type="passenger" begin="0.00" from="-258656153#2" to="898487493#1" end="3600.00" period="400.00"/>
    <flow id="car285" type="passenger" begin="0.00" from="586657042#1" to="253653636" end="3600.00" period="400.00"/>
    <flow id="car286" type="passenger" begin="0.00" from="586657908#0" to="898487493#1" end="3600.00" period="400.00"/>
    <flow id="car287" type="passenger" begin="0.00" from="-586664246#2" to="587800918#5" end="3600.00" period="400.00"/>
    <flow id="car288" type="passenger" begin="0.00" from="350146685#0" to="258656153#3" end="3600.00" period="400.00"/>
    <flow id="car289" type="passenger" begin="0.00" from="1307885878" to="586657908#3" end="3600.00" period="400.00"/>
    <flow id="car29" type="passenger" begin="0.00" from="-350146688#3" to="109505207#3" end="3600.00" period="400.00"/>
    <flow id="car290" type="passenger" begin="0.00" from="-586664246#2" to="890146630" end="3600.00" period="400.00"/>
    <flow id="car292" type="passenger" begin="0.00" from="890146631#1" to="-350146691#1" end="3600.00" period="400.00"/>
    <flow id="car293" type="passenger" begin="0.00" from="258656153#0" to="362871972#1" end="3600.00" period="400.00"/>
    <flow id="car294" type="passenger" begin="0.00" from="109505207#0" to="-109505207#2" end="3600.00" period="400.00"/>
    <flow id="car295" type="passenger" begin="0.00" from="615037319" to="-350146688#1" end="3600.00" period="400.00"/>
    <flow id="car296" type="passenger" begin="0.00" from="-350146691#1" to="587800918#1" end="3600.00" period="400.00"/>
    <flow id="car298" type="passenger" begin="0.00" from="586657042#1" to="-586664246#2" end="3600.00" period="400.00"/>
    <flow id="car299" type="passenger" begin="0.00" from="-109505204#0" to="898487493#0" end="3600.00" period="400.00"/>
    <flow id="car3" type="passenger" begin="0.00" from="890146631#1" to="-1117713207#1" end="3600.00" period="400.00"/>
    <flow id="car300" type="passenger" begin="0.00" from="-1117713207#1" to="586657908#2" end="3600.00" period="400.00"/>
    <flow id="car301" type="passenger" begin="0.00" from="258656153#3" to="586664246#2" end="3600.00" period="400.00"/>
    <flow id="car302" type="passenger" begin="0.00" from="586657042#0" to="555600352" end="3600.00" period="400.00"/>
    <flow id="car303" type="passenger" begin="0.00" from="258656153#3" to="587800918#1" end="3600.00" period="400.00"/>
    <flow id="car304" type="passenger" begin="0.00" from="-258656153#0" to="-350146688#6" end="3600.00" period="400.00"/>
    <flow id="car305" type="passenger" begin="0.00" from="586657042#0" to="-888879166" end="3600.00" period="400.00"/>
    <flow id="car306" type="passenger" begin="0.00" from="350146688#6" to="258656153#1" end="3600.00" period="400.00"/>
    <flow id="car307" type="passenger" begin="0.00" from="350146685#0" to="1305093055#1" end="3600.00" period="400.00"/>
    <flow id="car308" type="passenger" begin="0.00" from="586657908#2" to="109505204#0" end="3600.00" period="400.00"/>
    <flow id="car309" type="passenger" begin="0.00" from="586657042#1" to="-586664246#2" end="3600.00" period="400.00"/>
    <flow id="car31" type="passenger" begin="0.00" from="350146688#2" to="586657042#3" end="3600.00" period="400.00"/>
    <flow id="car310" type="passenger" begin="0.00" from="-586664246#1" to="-258656153#3" end="3600.00" period="400.00"/>
    <flow id="car311" type="passenger" begin="0.00" from="-350146688#6" to="-258656153#3" end="3600.00" period="400.00"/>
    <flow id="car312" type="passenger" begin="0.00" from="350146685#0" to="586664246#2" end="3600.00" period="400.00"/>
    <flow id="car313" type="passenger" begin="0.00" from="-350146688#6" to="-350146688#6" end="3600.00" period="400.00"/>
    <flow id="car314" type="passenger" begin="0.00" from="258656153#1" to="586657908#3" end="3600.00" period="400.00"/>
    <flow id="car315" type="passenger" begin="0.00" from="898487493#1" to="350146688#2" end="3600.00" period="400.00"/>
    <flow id="car316" type="passenger" begin="0.00" from="-586664246#4" to="-258656153#0" end="3600.00" period="400.00"/>
    <flow id="car317" type="passenger" begin="0.00" from="-350146688#6" to="-350146691#0" end="3600.00" period="400.00"/>
    <flow id="car318" type="passenger" begin="0.00" from="-350146688#5" to="-109505204#2" end="3600.00" period="400.00"/>
    <flow id="car319" type="passenger" begin="0.00" from="350146685#0" to="-586664246#2" end="3600.00" period="400.00"/>
    <flow id="car32" type="passenger" begin="0.00" from="615037319" to="586664246#3" end="3600.00" period="400.00"/>
    <flow id="car320" type="passenger" begin="0.00" from="898487493#1" to="350146691#0" end="3600.00" period="400.00"/>
    <flow id="car321" type="passenger" begin="0.00" from="586657042#1" to="-258656153#3" end="3600.00" period="400.00"/>
    <flow id="car322" type="passenger" begin="0.00" from="890146631#0" to="341096510#1" end="3600.00" period="400.00"/>
    <flow id="car323" type="passenger" begin="0.00" from="890146631#0" to="350146691#1" end="3600.00" period="400.00"/>
    <flow id="car324" type="passenger" begin="0.00" from="258656153#0" to="253653636" end="3600.00" period="400.00"/>
    <flow id="car325" type="passenger" begin="0.00" from="-350146688#6" to="-109505207#4" end="3600.00" period="400.00"/>
    <flow id="car326" type="passenger" begin="0.00" from="898487483#0" to="258656153#3" end="3600.00" period="400.00"/>
    <flow id="car327" type="passenger" begin="0.00" from="587800915#3" to="1117713206" end="3600.00" period="400.00"/>
    <flow id="car329" type="passenger" begin="0.00" from="-109505208#1" to="-341096510#1" end="3600.00" period="400.00"/>
    <flow id="car33" type="passenger" begin="0.00" from="-555600348" to="-109505207#2" end="3600.00" period="400.00"/>
    <flow id="car330" type="passenger" begin="0.00" from="350146688#2" to="-888879166" end="3600.00" period="400.00"/>
    <flow id="car332" type="passenger" begin="0.00" from="586664246#0" to="362871972#1" end="3600.00" period="400.00"/>
    <flow id="car333" type="passenger" begin="0.00" from="586664246#3" to="-350146691#0" end="3600.00" period="400.00"/>
    <flow id="car334" type="passenger" begin="0.00" from="341096510#1" to="258656153#0" end="3600.00" period="400.00"/>
    <flow id="car337" type="passenger" begin="0.00" from="362871972#0" to="362871972#1" end="3600.00" period="400.00"/>
    <flow id="car338" type="passenger" begin="0.00" from="586657908#2" to="898487493#0" end="3600.00" period="400.00"/>
    <flow id="car339" type="passenger" begin="0.00" from="-350146691#0" to="-350146688#6" end="3600.00" period="400.00"/>
    <flow id="car34" type="passenger" begin="0.00" from="-888879166" to="-586664246#2" end="3600.00" period="400.00"/>
    <flow id="car340" type="passenger" begin="0.00" from="367762382#0" to="-341096510#1" end="3600.00" period="400.00"/>
    <flow id="car341" type="passenger" begin="0.00" from="-350146688#5" to="-109505208#4" end="3600.00" period="400.00"/>
    <flow id="car342" type="passenger" begin="0.00" from="-109505204#0" to="258656153#0" end="3600.00" period="400.00"/>
    <flow id="car343" type="passenger" begin="0.00" from="350146691#0" to="-739723515#1" end="3600.00" period="400.00"/>
    <flow id="car344" type="passenger" begin="0.00" from="-555600348" to="586657908#0" end="3600.00" period="400.00"/>
    <flow id="car345" type="passenger" begin="0.00" from="586657042#1" to="258656153#0" end="3600.00" period="400.00"/>
    <flow id="car346" type="passenger" begin="0.00" from="586657042#0" to="898487483#0" end="3600.00" period="400.00"/>
    <flow id="car348" type="passenger" begin="0.00" from="367762382#0" to="898487483#0" end="3600.00" period="400.00"/>
    <flow id="car349" type="passenger" begin="0.00" from="1305093055#0" to="350146688#6" end="3600.00" period="400.00"/>
    <flow id="car35" type="passenger" begin="0.00" from="-350146691#1" to="898487483#1" end="3600.00" period="400.00"/>
    <flow id="car350" type="passenger" begin="0.00" from="364177895#0" to="898487482" end="3600.00" period="400.00"/>
    <flow id="car351" type="passenger" begin="0.00" from="587800915#3" to="-109505208#4" end="3600.00" period="400.00"/>
    <flow id="car352" type="passenger" begin="0.00" from="-350146688#3" to="-888879166" end="3600.00" period="400.00"/>
    <flow id="car353" type="passenger" begin="0.00" from="586657908#2" to="350146691#1" end="3600.00" period="400.00"/>