<?xml version="1.0" encoding="UTF-8"?>

<!-- generated on 2025-11-11 16:31:03 by Eclipse SUMO netedit Version 1.24.0
-->

<routes xmlns:xsi="http://www.w3.org/2001/XMLSchema-instance" xsi:noNamespaceSchemaLocation="http://sumo.dlr.de/xsd/routes_file.xsd">
    <!-- Vehicles, persons and containers (sorted by depart) -->
    <flow id="motorcycle1" type="motorcycle" begin="0.00" from="-586664246#2" to="-350146688#6" end="3600.00" period="1000.00"/>
    <flow id="motorcycle10" type="motorcycle" begin="0.00" from="587800915#0" to="586657908#0" end="3600.00" period="1000.00"/>
    <flow id="motorcycle100" type="motorcycle" begin="0.00" from="898487493#0" to="898487483#0" end="3600.00" period="1000.00"/>
    <flow id="motorcycle101" type="motorcycle" begin="0.00" from="615037319" to="-350146685#1" end="3600.00" period="1000.00"/>
    <flow id="motorcycle102" type="motorcycle" begin="0.00" from="258656153#1" to="-350146688#6" end="3600.00" period="1000.00"/>
    <flow id="motorcycle103" type="motorcycle" begin="0.00" from="109505208#2" to="-109505208#1" end="3600.00" period="1000.00"/>
    <flow id="motorcycle104" type="motorcycle" begin="0.00" from="109505207#0" to="898487493#2" end="3600.00" period="1000.00"/>
    <flow id="motorcycle105" type="motorcycle" begin="0.00" from="-586664246#2" to="587800915#3" end="3600.00" period="1000.00"/>
    <flow id="motorcycle106" type="motorcycle" begin="0.00" from="253653636" to="1305093055#1" end="3600.00" period="1000.00"/>
    <flow id="motorcycle107" type="motorcycle" begin="0.00" from="898487483#1" to="977815031" end="3600.00" period="1000.00"/>
    <flow id="motorcycle108" type="motorcycle" begin="0.00" from="350146688#2" to="586657908#2" end="3600.00" period="1000.00"/>
    <flow id="motorcycle109" type="motorcycle" begin="0.00" from="-350146685#1" to="-739723515#1" end="3600.00" period="1000.00"/>
    <flow id="motorcycle110" type="motorcycle" begin="0.00" from="898487493#0" to="362714491" end="3600.00" period="1000.00"/>
    <flow id="motorcycle111" type="motorcycle" begin="0.00" from="350146688#0" to="586664246#0" end="3600.00" period="1000.00"/>
    <flow id="motorcycle112" type="motorcycle" begin="0.00" from="-109505208#1" to="362714491" end="3600.00" period="1000.00"/>
    <flow id="motorcycle113" type="motorcycle" begin="0.00" from="323987231#0" to="890146630" end="3600.00" period="1000.00"/>
    <flow id="motorcycle114" type="motorcycle" begin="0.00" from="-350146685#1" to="898487493#1" end="3600.00" period="1000.00"/>
    <flow id="motorcycle116" type="motorcycle" begin="0.00" from="350146691#0" to="586657042#1" end="3600.00" period="1000.00"/>
    <flow id="motorcycle117" type="motorcycle" begin="0.00" from="-555600348" to="-258656153#3" end="3600.00" period="1000.00"/>
    <flow id="motorcycle118" type="motorcycle" begin="0.00" from="890146631#1" to="-350146691#1" end="3600.00" period="1000.00"/>
    <flow id="motorcycle121" type="motorcycle" begin="0.00" from="341096510#1" to="898487483#1" end="3600.00" period="1000.00"/>
    <flow id="motorcycle122" type="motorcycle" begin="0.00" from="-350146691#0" to="586657908#2" end="3600.00" period="1000.00"/>
    <flow id="motorcycle123" type="motorcycle" begin="0.00" from="-555600352" to="1117713206" end="3600.00" period="1000.00"/>
    <flow id="motorcycle124" type="motorcycle" begin="0.00" from="515970250" to="-739723515#1" end="3600.00" period="1000.00"/>
    <flow id="motorcycle126" type="motorcycle" begin="0.00" from="-109505208#4" to="258656153#0" end="3600.00" period="1000.00"/>
    <flow id="motorcycle128" type="motorcycle" begin="0.00" from="-109505208#4" to="-350146688#6" end="3600.00" period="1000.00"/>
    <flow id="motorcycle129" type="motorcycle" begin="0.00" from="-586664246#2" to="898487483#0" end="3600.00" period="1000.00"/>
    <flow id="motorcycle13" type="motorcycle" begin="0.00" from="-258656153#0" to="-258656153#0" end="3600.00" period="1000.00"/>
    <flow id="motorcycle130" type="motorcycle" begin="0.00" from="890146631#0" to="890146631#1" end="3600.00" period="1000.00"/>
    <flow id="motorcycle131" type="motorcycle" begin="0.00" from="109505207#0" to="-341096510#1" end="3600.00" period="1000.00"/>
    <flow id="motorcycle133" type="motorcycle" begin="0.00" from="350146691#1" to="977815031" end="3600.00" period="1000.00"/>
    <flow id="motorcycle135" type="motorcycle" begin="0.00" from="587800915#3" to="-739723515#1" end="3600.00" period="1000.00"/>
    <flow id="motorcycle136" type="motorcycle" begin="0.00" from="367762382#0" to="898487483#1" end="3600.00" period="1000.00"/>
    <flow id="motorcycle137" type="motorcycle" begin="0.00" from="-341096510#1" to="-258656153#2" end="3600.00" period="1000.00"/>
    <flow id="motorcycle138" type="motorcycle" begin="0.00" from="-258656153#2" to="350146691#0" end="3600.00" period="1000.00"/>
    <flow id="motorcycle139" type="motorcycle" begin="0.00" from="-586664246#2" to="362871972#0" end="3600.00" period="1000.00"/>
    <flow id="motorcycle14" type="motorcycle" begin="0.00" from="615037319" to="362871972#0" end="3600.00" period="1000.00"/>
    <flow id="motorcycle140" type="motorcycle" begin="0.00" from="586657042#3" to="-350146688#5" end="3600.00" period="1000.00"/>
    <flow id="motorcycle143" type="motorcycle" begin="0.00" from="615037319" to="-258656153#0" end="3600.00" period="1000.00"/>
    <flow id="motorcycle144" type="motorcycle" begin="0.00" from="1305093055#0" to="-586664246#4" end="3600.00" period="1000.00"/>
    <flow id="motorcycle147" type="motorcycle" begin="0.00" from="586657908#2" to="350146688#6" end="3600.00" period="1000.00"/>
    <flow id="motorcycle149" type="motorcycle" begin="0.00" from="-109505208#4" to="890146631#2" end="3600.00" period="1000.00"/>
    <flow id="motorcycle15" type="motorcycle" begin="0.00" from="587800915#0" to="586657908#3" end="3600.00" period="1000.00"/>
    <flow id="motorcycle150" type="motorcycle" begin="0.00" from="890146631#2" to="350146688#6" end="3600.00" period="1000.00"/>
    <flow id="motorcycle152" type="motorcycle" begin="0.00" from="-350146685#1" to="-258656153#3" end="3600.00" period="1000.00"/>
    <flow id="motorcycle155" type="motorcycle" begin="0.00" from="890146631#2" to="-350146688#5" end="3600.00" period="1000.00"/>
    <flow id="motorcycle156" type="motorcycle" begin="0.00" from="-555600352" to="-258656153#0" end="3600.00" period="1000.00"/>
    <flow id="motorcycle157" type="motorcycle" begin="0.00" from="586664246#2" to="890146631#2" end="3600.00" period="1000.00"/>
    <flow id="motorcycle159" type="motorcycle" begin="0.00" from="-350146685#1" to="898487483#0" end="3600.00" period="1000.00"/>
    <flow id="motorcycle16" type="motorcycle" begin="0.00" from="350146685#0" to="898487493#1" end="3600.00" period="1000.00"/>
    <flow id="motorcycle161" type="motorcycle" begin="0.00" from="587800915#0" to="890146631#1" end="3600.00" period="1000.00"/>
    <flow id="motorcycle165" type="motorcycle" begin="0.00" from="587800915#0" to="-586664246#2" end="3600.00" period="1000.00"/>
    <flow id="motorcycle166" type="motorcycle" begin="0.00" from="586664246#2" to="-258656153#2" end="3600.00" period="1000.00"/>
    <flow id="motorcycle167" type="motorcycle" begin="0.00" from="890146631#0" to="890146631#0" end="3600.00" period="1000.00"/>
    <flow id="motorcycle168" type="motorcycle" begin="0.00" from="-350146691#1" to="888879165#0" end="3600.00" period="1000.00"/>
    <flow id="motorcycle169" type="motorcycle" begin="0.00" from="253653636" to="-888879166" end="3600.00" period="1000.00"/>
    <flow id="motorcycle17" type="motorcycle" begin="0.00" from="109505207#0" to="350146688#6" end="3600.00" period="1000.00"/>
    <flow id="motorcycle170" type="motorcycle" begin="0.00" from="586664246#3" to="-350146691#0" end="3600.00" period="1000.00"/>
    <flow id="motorcycle173" type="motorcycle" begin="0.00" from="898487493#0" to="-586664246#4" end="3600.00" period="1000.00"/>
    <flow id="motorcycle175" type="motorcycle" begin="0.00" from="898487493#1" to="350146688#5" end="3600.00" period="1000.00"/>
    <flow id="motorcycle176" type="motorcycle" begin="0.00" from="898487483#0" to="-258656153#2" end="3600.00" period="1000.00"/>
    <flow id="motorcycle177" type="motorcycle" begin="0.00" from="898487493#0" to="-350146688#1" end="3600.00" period="1000.00"/>
    <flow id="motorcycle178" type="motorcycle" begin="0.00" from="898487493#0" to="-586664246#2" end="3600.00" period="1000.00"/>
    <flow id="motorcycle179" type="motorcycle" begin="0.00" from="-258656153#2" to="253653636" end="3600.00" period="1000.00"/>
    <flow id="motorcycle180" type="motorcycle" begin="0.00" from="586657908#0" to="-888879166" end="3600.00" period="1000.00"/>
    <flow id="motorcycle181" type="motorcycle" begin="0.00" from="350146691#1" to="350146685#0" end="3600.00" period="1000.00"/>
    <flow id="motorcycle182" type="motorcycle" begin="0.00" from="109505207#3" to="350146691#1" end="3600.00" period="1000.00"/>
    <flow id="motorcycle183" type="motorcycle" begin="0.00" from="-586664246#1" to="586657908#0" end="3600.00" period="1000.00"/>
    <flow id="motorcycle185" type="motorcycle" begin="0.00" from="350146685#0" to="586657908#2" end="3600.00" period="1000.00"/>
    <flow id="motorcycle186" type="motorcycle" begin="0.00" from="586657908#2" to="586657042#0" end="3600.00" period="1000.00"/>
    <flow id="motorcycle189" type="motorcycle" begin="0.00" from="-888879166" to="890146630" end="3600.00" period="1000.00"/>
    <flow id="motorcycle190" type="motorcycle" begin="0.00" from="586657042#3" to="-739723515#1" end="3600.00" period="1000.00"/>
    <flow id="motorcycle192" type="motorcycle" begin="0.00" from="109505208#2" to="-739723515#1" end="3600.00" period="1000.00"/>
    <flow id="motorcycle194" type="motorcycle" begin="0.00" from="898487483#0" to="586657042#1" end="3600.00" period="1000.00"/>
    <flow id="motorcycle195" type="motorcycle" begin="0.00" from="890146631#2" to="362871972#1" end="3600.00" period="1000.00"/>
    <flow id="motorcycle196" type="motorcycle" begin="0.00" from="-888879165#3" to="350146688#6" end="3600.00" period="1000.00"/>
    <flow id="motorcycle198" type="motorcycle" begin="0.00" from="1305093055#0" to="362714491" end="3600.00" period="1000.00"/>
    <flow id="motorcycle199" type="motorcycle" begin="0.00" from="364177895#0" to="258656153#1" end="3600.00" period="1000.00"/>
    <flow id="motorcycle2" type="motorcycle" begin="0.00" from="586657908#0" to="586657042#1" end="3600.00" period="1000.00"/>
    <flow id="motorcycle200" type="motorcycle" begin="0.00" from="1307885878" to="-350146688#6" end="3600.00" period="1000.00"/>
    <flow id="motorcycle202" type="motorcycle" begin="0.00" from="586664246#3" to="-350146685#1" end="3600.00" period="1000.00"/>
    <flow id="motorcycle205" type="motorcycle" begin="0.00" from="587800915#3" to="586664246#2" end="3600.00" period="1000.00"/>
    <flow id="motorcycle206" type="motorcycle" begin="0.00" from="515970250" to="-350146691#0" end="3600.00" period="1000.00"/>
    <flow id="motorcycle208" type="motorcycle" begin="0.00" from="-555600352" to="258656153#3" end="3600.00" period="1000.00"/>
    <flow id="motorcycle209" type="motorcycle" begin="0.00" from="615037319" to="-109505208#4" end="3600.00" period="1000.00"/>
    <flow id="motorcycle21" type="motorcycle" begin="0.00" from="-555600348" to="-586664246#4" end="3600.00" period="1000.00"/>
    <flow id="motorcycle211" type="motorcycle" begin="0.00" from="-350146688#6" to="586657042#3" end="3600.00" period="1000.00"/>
    <flow id="motorcycle212" type="motorcycle" begin="0.00" from="258656153#3" to="-350146691#1" end="3600.00" period="1000.00"/>
    <flow id="motorcycle214" type="motorcycle" begin="0.00" from="586657908#3" to="586664246#3" end="3600.00" period="1000.00"/>
    <flow id="motorcycle215" type="motorcycle" begin="0.00" from="-258656153#2" to="1305093055#1" end="3600.00" period="1000.00"/>
    <flow id="motorcycle216" type="motorcycle" begin="0.00" from="-350146688#5" to="898487493#0" end="3600.00" period="1000.00"/>
    <flow id="motorcycle218" type="motorcycle" begin="0.00" from="-555600352" to="890146630" end="3600.00" period="1000.00"/>
    <flow id="motorcycle219" type="motorcycle" begin="0.00" from="253653636" to="587800918#1" end="3600.00" period="1000.00"/>
    <flow id="motorcycle220" type="motorcycle" begin="0.00" from="367762382#0" to="977815031" end="3600.00" period="1000.00"/>
    <flow id="motorcycle221" type="motorcycle" begin="0.00" from="350146691#0" to="898487493#0" end="3600.00" period="1000.00"/>
    <flow id="motorcycle222" type="motorcycle" begin="0.00" from="890146631#1" to="362871972#1" end="3600.00" period="1000.00"/>
    <flow id="motorcycle223" type="motorcycle" begin="0.00" from="586657042#3" to="350146685#0" end="3600.00" period="1000.00"/>
    <flow id="motorcycle225" type="motorcycle" begin="0.00" from="890146631#2" to="586664246#0" end="3600.00" period="1000.00"/>
    <flow id="motorcycle226" type="motorcycle" begin="0.00" from="258656153#1" to="-586664246#1" end="3600.00" period="1000.00"/>
    <flow id="motorcycle227" type="motorcycle" begin="0.00" from="-555600352" to="555600348" end="3600.00" period="1000.00"/>
    <flow id="motorcycle228" type="motorcycle" begin="0.00" from="586664246#0" to="350146688#2" end="3600.00" period="1000.00"/>
    <flow id="motorcycle229" type="motorcycle" begin="0.00" from="362871972#0" to="-586664246#2" end="3600.00" period="1000.00"/>
    <flow id="motorcycle23" type="motorcycle" begin="0.00" from="-258656153#0" to="-586664246#4" end="3600.00" period="1000.00"/>
    <flow id="motorcycle230" type="motorcycle" begin="0.00" from="-109505208#4" to="-586664246#4" end="3600.00" period="1000.00"/>
    <flow id="motorcycle232" type="motorcycle" begin="0.00" from="350146688#0" to="-323987231#0" end="3600.00" period="1000.00"/>
    <flow id="motorcycle233" type="motorcycle" begin="0.00" from="-555600348" to="586657042#3" end="3600.00" period="1000.00"/>
    <flow id="motorcycle234" type="motorcycle" begin="0.00" from="586657042#1" to="-109505208#1" end="3600.00" period="1000.00"/>
    <flow id="motorcycle235" type="motorcycle" begin="0.00" from="109505208#2" to="350146688#6" end="3600.00" period="1000.00"/>
    <flow id="motorcycle238" type="motorcycle" begin="0.00" from="350146688#6" to="586657042#3" end="3600.00" period="1000.00"/>
    <flow id="motorcycle242" type="motorcycle" begin="0.00" from="615037319" to="898487493#0" end="3600.00" period="1000.00"/>
    <flow id="motorcycle244" type="motorcycle" begin="0.00" from="350146688#0" to="362871972#0" end="3600.00" period="1000.00"/>
    <flow id="motorcycle245" type="motorcycle" begin="0.00" from="-350146691#1" to="-350146688#6" end="3600.00" period="1000.00"/>
    <flow id="motorcycle246" type="motorcycle" begin="0.00" from="1307885878" to="-109505207#2" end="3600.00" period="1000.00"/>
    <flow id="motorcycle248" type="motorcycle" begin="0.00" from="109505208#2" to="-350146685#1" end="3600.00" period="1000.00"/>
    <flow id="motorcycle249" type="motorcycle" begin="0.00" from="258656153#0" to="-258656153#3" end="3600.00" period="1000.00"/>
    <flow id="motorcycle25" type="motorcycle" begin="0.00" from="109505207#0" to="-350146688#5" end="3600.00" period="1000.00"/>
    <flow id="motorcycle250" type="motorcycle" begin="0.00" from="362871972#0" to="-109505207#2" end="3600.00" period="1000.00"/>
    <flow id="motorcycle251" type="motorcycle" begin="0.00" from="109505207#3" to="350146691#0" end="3600.00" period="1000.00"/>
    <flow id="motorcycle252" type="motorcycle" begin="0.00" from="-109505207#2" to="555600348" end="3600.00" period="1000.00"/>
    <flow id="motorcycle253" type="motorcycle" begin="0.00" from="-341096510#1" to="258656153#1" end="3600.00" period="1000.00"/>
    <flow id="motorcycle256" type="motorcycle" begin="0.00" from="586657908#3" to="109505207#3" end="3600.00" period="1000.00"/>
    <flow id="motorcycle257" type="motorcycle" begin="0.00" from="586657908#3" to="890146629" end="3600.00" period="1000.00"/>
    <flow id="motorcycle26" type="motorcycle" begin="0.00" from="-586664246#2" to="898487483#1" end="3600.00" period="1000.00"/>
    <flow id="motorcycle261" type="motorcycle" begin="0.00" from="364177895#0" to="587800915#3" end="3600.00" period="1000.00"/>
    <flow id="motorcycle262" type="motorcycle" begin="0.00" from="364177895#0" to="586664246#2" end="3600.00" period="1000.00"/>
    <flow id="motorcycle263" type="motorcycle" begin="0.00" from="898487483#1" to="-350146688#5" end="3600.00" period="1000.00"/>
    <flow id="motorcycle265" type="motorcycle" begin="0.00" from="-258656153#3" to="586657042#0" end="3600.00" period="1000.00"/>
    <flow id="motorcycle266" type="motorcycle" begin="0.00" from="350146688#2" to="-350146688#6" end="3600.00" period="1000.00"/>
    <flow id="motorcycle267" type="motorcycle" begin="0.00" from="586657042#1" to="586664246#3" end="3600.00" period="1000.00"/>
    <flow id="motorcycle268" type="motorcycle" begin="0.00" from="-350146688#3" to="362871972#1" end="3600.00" period="1000.00"/>
    <flow id="motorcycle269" type="motorcycle" begin="0.00" from="586657908#2" to="-258656153#2" end="3600.00" period="1000.00"/>
    <flow id="motorcycle27" type="motorcycle" begin="0.00" from="364177895#0" to="362871972#1" end="3600.00" period="1000.00"/>
    <flow id="motorcycle270" type="motorcycle" begin="0.00" from="587800915#3" to="898487493#1" end="3600.00" period="1000.00"/>
    <flow id="motorcycle272" type="motorcycle" begin="0.00" from="-888879166" to="586657042#1" end="3600.00" period="1000.00"/>
    <flow id="motorcycle273" type="motorcycle" begin="0.00" from="898487483#1" to="1117713206" end="3600.00" period="1000.00"/>
    <flow id="motorcycle274" type="motorcycle" begin="0.00" from="586657042#3" to="-109505208#4" end="3600.00" period="1000.00"/>
    <flow id="motorcycle276" type="motorcycle" begin="0.00" from="-258656153#0" to="586664246#3" end="3600.00" period="1000.00"/>
    <flow id="motorcycle277" type="motorcycle" begin="0.00" from="615037319" to="362871972#0" end="3600.00" period="1000.00"/>
    <flow id="motorcycle278" type="motorcycle" begin="0.00" from="-258656153#3" to="898487493#2" end="3600.00" period="1000.00"/>
    <flow id="motorcycle28" type="motorcycle" begin="0.00" from="-350146688#5" to="586657908#3" end="3600.00" period="1000.00"/>
    <flow id="motorcycle280" type="motorcycle" begin="0.00" from="1305093055#0" to="109505207#3" end="3600.00" period="1000.00"/>
    <flow id="motorcycle282" type="motorcycle" begin="0.00" from="615037319" to="888879165#0" end="3600.00" period="1000.00"/>
    <flow id="motorcycle283" type="motorcycle" begin="0.00" from="-258656153#2" to="898487493#1" end="3600.00" period="1000.00"/>
    <flow id="motorcycle285" type="motorcycle" begin="0.00" from="586657042#1" to="253653636" end="3600.00" period="1000.00"/>
    <flow id="motorcycle286" type="motorcycle" begin="0.00" from="586657908#0" to="898487493#1" end="3600.00" period="1000.00"/>
    <flow id="motorcycle287" type="motorcycle" begin="0.00" from="-586664246#2" to="587800918#5" end="3600.00" period="1000.00"/>
    <flow id="motorcycle288" type="motorcycle" begin="0.00" from="350146685#0" to="258656153#3" end="3600.00" period="1000.00"/>
    <flow id="motorcycle289" type="motorcycle" begin="0.00" from="1307885878" to="586657908#3" end="3600.00" period="1000.00"/>
    <flow id="motorcycle29" type="motorcycle" begin="0.00" from="-350146688#3" to="109505207#3" end="3600.00" period="1000.00"/>
    <flow id="motorcycle290" type="motorcycle" begin="0.00" from="-586664246#2" to="890146630" end="3600.00" period="1000.00"/>
    <flow id="motorcycle292" type="motorcycle" begin="0.00" from="890146631#1" to="-350146691#1" end="3600.00" period="1000.00"/>
    <flow id="motorcycle293" type="motorcycle" begin="0.00" from="258656153#0" to="362871972#1" end="3600.00" period="1000.00"/>
    <flow id="motorcycle294" type="motorcycle" begin="0.00" from="109505207#0" to="-109505207#2" end="3600.00" period="1000.00"/>
    <flow id="motorcycle295" type="motorcycle" begin="0.00" from="615037319" to="-350146688#1" end="3600.00" period="1000.00"/>
    <flow id="motorcycle296" type="motorcycle" begin="0.00" from="-350146691#1" to="587800918#1" end="3600.00" period="1000.00"/>
    <flow id="motorcycle298" type="motorcycle" begin="0.00" from="586657042#1" to="-586664246#2" end="3600.00" period="1000.00"/>
    <flow id="motorcycle301" type="motorcycle" begin="0.00" from="258656153#3" to="586664246#2" end="3600.00" period="1000.00"/>
    <flow id="motorcycle302" type="motorcycle" begin="0.00" from="586657042#0" to="555600352" end="3600.00" period="1000.00"/>
    <flow id="motorcycle303" type="motorcycle" begin="0.00" from="258656153#3" to="587800918#1" end="3600.00" period="1000.00"/>
    <flow id="motorcycle304" type="motorcycle" begin="0.00" from="-258656153#0" to="-350146688#6" end="3600.00" period="1000.00"/>
    <flow id="motorcycle305" type="motorcycle" begin="0.00" from="586657042#0" to="-888879166" end="3600.00" period="1000.00"/>
    <flow id="motorcycle306" type="motorcycle" begin="0.00" from="350146688#6" to="258656153#1" end="3600.00" period="1000.00"/>
    <flow id="motorcycle307" type="motorcycle" begin="0.00" from="350146685#0" to="1305093055#1" end="3600.00" period="1000.00"/>
    <flow id="motorcycle309" type="motorcycle" begin="0.00" from="586657042#1" to="-586664246#2" end="3600.00" period="1000.00"/>
    <flow id="motorcycle31" type="motorcycle" begin="0.00" from="350146688#2" to="586657042#3" end="3600.00" period="1000.00"/>
    <flow id="motorcycle310" type="motorcycle" begin="0.00" from="-586664246#1" to="-258656153#3" end="3600.00" period="1000.00"/>
    <flow id="motorcycle311" type="motorcycle" begin="0.00" from="-350146688#6" to="-258656153#3" end="3600.00" period="1000.00"/>
    <flow id="motorcycle312" type="motorcycle" begin="0.00" from="350146685#0" to="586664246#2" end="3600.00" period="1000.00"/>
    <flow id="motorcycle313" type="motorcycle" begin="0.00" from="-350146688#6" to="-350146688#6" end="3600.00" period="1000.00"/>
    <flow id="motorcycle314" type="motorcycle" begin="0.00" from="258656153#1" to="586657908#3" end="3600.00" period="1000.00"/>
    <flow id="motorcycle315" type="motorcycle" begin="0.00" from="898487493#1" to="350146688#2" end="3600.00" period="1000.00"/>
    <flow id="motorcycle316" type="motorcycle" begin="0.00" from="-586664246#4" to="-258656153#0" end="3600.00" period="1000.00"/>
    <flow id="motorcycle317" type="motorcycle" begin="0.00" from="-350146688#6" to="-350146691#0" end="3600.00" period="1000.00"/>
    <flow id="motorcycle319" type="motorcycle" begin="0.00" from="350146685#0" to="-586664246#2" end="3600.00" period="1000.00"/>
    <flow id="motorcycle32" type="motorcycle" begin="0.00" from="615037319" to="586664246#3" end="3600.00" period="1000.00"/>
    <flow id="motorcycle320" type="motorcycle" begin="0.00" from="898487493#1" to="350146691#0" end="3600.00" period="1000.00"/>
    <flow id="motorcycle321" type="motorcycle" begin="0.00" from="586657042#1" to="-258656153#3" end="3600.00" period="1000.00"/>
    <flow id="motorcycle322" type="motorcycle" begin="0.00" from="890146631#0" to="341096510#1" end="3600.00" period="1000.00"/>
    <flow id="motorcycle323" type="motorcycle" begin="0.00" from="890146631#0" to="350146691#1" end="3600.00" period="1000.00"/>
    <flow id="motorcycle324" type="motorcycle" begin="0.00" from="258656153#0" to="253653636" end="3600.00" period="1000.00"/>
    <flow id="motorcycle326" type="motorcycle" begin="0.00" from="898487483#0" to="258656153#3" end="3600.00" period="1000.00"/>
    <flow id="motorcycle327" type="motorcycle" begin="0.00" from="587800915#3" to="1117713206" end="3600.00" period="1000.00"/>
    <flow id="motorcycle329" type="motorcycle" begin="0.00" from="-109505208#1" to="-341096510#1" end="3600.00" period="1000.00"/>
    <flow id="motorcycle33" type="motorcycle" begin="0.00" from="-555600348" to="-109505207#2" end="3600.00" period="1000.00"/>
    <flow id="motorcycle330" type="motorcycle" begin="0.00" from="350146688#2" to="-888879166" end="3600.00" period="1000.00"/>
    <flow id="motorcycle332" type="motorcycle" begin="0.00" from="586664246#0" to="362871972#1" end="3600.00" period="1000.00"/>
    <flow id="motorcycle333" type="motorcycle" begin="0.00" from="586664246#3" to="-350146691#0" end="3600.00" period="1000.00"/>
    <flow id="motorcycle334" type="motorcycle" begin="0.00" from="341096510#1" to="258656153#0" end="3600.00" period="1000.00"/>
    <flow id="motorcycle337" type="motorcycle" begin="0.00" from="362871972#0" to="362871972#1" end="3600.00" period="1000.00"/>
    <flow id="motorcycle338" type="motorcycle" begin="0.00" from="586657908#2" to="898487493#0" end="3600.00" period="1000.00"/>
    <flow id="motorcycle339" type="motorcycle" begin="0.00" from="-350146691#0" to="-350146688#6" end="3600.00" period="1000.00"/>
    <flow id="motorcycle34" type="motorcycle" begin="0.00" from="-888879166" to="-586664246#2" end="3600.00" period="1000.00"/>
    <flow id="motorcycle340" type="motorcycle" begin="0.00" from="367762382#0" to="-341096510#1" end="3600.00" period="1000.00"/>
    <flow id="motorcycle341" type="motorcycle" begin="0.00" from="-350146688#5" to="-109505208#4" end="3600.00" period="1000.00"/>
    <flow id="motorcycle343" type="motorcycle" begin="0.00" from="350146691#0" to="-739723515#1" end="3600.00" period="1000.00"/>
    <flow id="motorcycle344" type="motorcycle" begin="0.00" from="-555600348" to="586657908#0" end="3600.00" period="1000.00"/>
    <flow id="motorcycle345" type="motorcycle" begin="0.00" from="586657042#1" to="258656153#0" end="3600.00" period="1000.00"/>
    <flow id="motorcycle346" type="motorcycle" begin="0.00" from="586657042#0" to="898487483#0" end="3600.00" period="1000.00"/>
    <flow id="motorcycle348" type="motorcycle" begin="0.00" from="367762382#0" to="898487483#0" end="3600.00" period="1000.00"/>
    <flow id="motorcycle349" type="motorcycle" begin="0.00" from="1305093055#0" to="350146688#6" end="3600.00" period="1000.00"/>
    <flow id="motorcycle35" type="motorcycle" begin="0.00" from="-350146691#1" to="898487483#1" end="3600.00" period="1000.00"/>
    <flow id="motorcycle350" type="motorcycle" begin="0.00" from="364177895#0" to="898487482" end="3600.00" period="1000.00"/>
    <flow id="motorcycle351" type="motorcycle" begin="0.00" from="587800915#3" to="-109505208#4" end="3600.00" period="1000.00"/>
    <flow id="motorcycle352" type="motorcycle" begin="0.00" from="-350146688#3" to="-888879166" end="3600.00" period="1000.00"/>
    <flow id="motorcycle353" type="motorcycle" begin="0.00" from="586657908#2" to="350146691#1" end="3600.00" period="1000.00"/>
    <flow id="motorcycle354" type="motorcycle" begin="0.00" from="-586664246#4" to="-258656153#3" end="3600.00" period="1000.00"/>
    <flow id="motorcycle355" type="motorcycle" begin="0.00" from="586657042#0" to="586657908#0" end="3600.00" period="1000.00"/>
    <flow id="motorcycle356" type="motorcycle" begin="0.00" from="898487483#0" to="350146685#0" end="3600.00" period="1000.00"/>
    <flow id="motorcycle36" type="motorcycle" begin="0.00" from="890146631#0" to="-888879166" end="3600.00" period="1000.00"/>
    <flow id="motorcycle362" type="motorcycle" begin="0.00" from="898487483#1" to="977815031" end="3600.00" period="1000.00"/>
    <flow id="motorcycle363" type="motorcycle" begin="0.00" from="515970250" to="-586664246#2" end="3600.00" period="1000.00"/>
    <flow id="motorcycle365" type="motorcycle" begin="0.00" from="258656153#0" to="555600352" end="3600.00" period="1000.00"/>
    <flow id="motorcycle366" type="motorcycle" begin="0.00" from="890146632" to="-350146688#1" end="3600.00" period="1000.00"/>
    <flow id="motorcycle367" type="motorcycle" begin="0.00" from="350146688#6" to="555600348" end="3600.00" period="1000.00"/>
    <flow id="motorcycle37" type="motorcycle" begin="0.00" from="364177895#0" to="1117713206" end="3600.00" period="1000.00"/>
    <flow id="motorcycle372" type="motorcycle" begin="0.00" from="-586664246#4" to="898487483#1" end="3600.00" period="1000.00"/>
    <flow id="motorcycle373" type="motorcycle" begin="0.00" from="587800915#0" to="350146688#6" end="3600.00" period="1000.00"/>
    <flow id="motorcycle374" type="motorcycle" begin="0.00" from="253653636" to="-888879166" end="3600.00" period="1000.00"/>
    <flow id="motorcycle376" type="motorcycle" begin="0.00" from="109505208#2" to="350146688#2" end="3600.00" period="1000.00"/>
    <flow id="motorcycle379" type="motorcycle" begin="0.00" from="-350146688#6" to="109505207#0" end="3600.00" period="1000.00"/>
    <flow id="motorcycle38" type="motorcycle" begin="0.00" from="890146632" to="258656153#0" end="3600.00" period="1000.00"/>
    <flow id="motorcycle381" type="motorcycle" begin="0.00" from="586657908#3" to="-350146688#5" end="3600.00" period="1000.00"/>
    <flow id="motorcycle382" type="motorcycle" begin="0.00" from="350146688#0" to="898487483#0" end="3600.00" period="1000.00"/>
    <flow id="motorcycle383" type="motorcycle" begin="0.00" from="1307885878" to="586657908#0" end="3600.00" period="1000.00"/>
    <flow id="motorcycle384" type="motorcycle" begin="0.00" from="-258656153#3" to="898487493#1" end="3600.00" period="1000.00"/>
    <flow id="motorcycle385" type="motorcycle" begin="0.00" from="350146691#1" to="-350146691#1" end="3600.00" period="1000.00"/>
    <flow id="motorcycle386" type="motorcycle" begin="0.00" from="-350146688#3" to="350146688#6" end="3600.00" period="1000.00"/>
    <flow id="motorcycle387" type="motorcycle" begin="0.00" from="350146688#0" to="-258656153#0" end="3600.00" period="1000.00"/>
    <flow id="motorcycle389" type="motorcycle" begin="0.00" from="258656153#0" to="-258656153#2" end="3600.00" period="1000.00"/>