<?xml version="1.0" encoding="UTF-8"?>

<!-- generated on 2025-11-04 15:58:03 by Eclipse SUMO netedit Version 1.24.0
-->

<routes xmlns:xsi="http://www.w3.org/2001/XMLSchema-instance" xsi:noNamespaceSchemaLocation="http://sumo.dlr.de/xsd/routes_file.xsd">
    <!-- VTypes -->
    <vType id="bus_bus" vClass="bus"/>
    <!-- Vehicles, persons and containers (sorted by depart) -->
    <trip id="bus0" type="bus_bus" depart="0.00" departLane="best" departSpeed="max" from="615037319" to="-323987231#0"/>
    <trip id="bus1" type="bus_bus" depart="69.09" departLane="best" from="-350146685#1" to="-323987231#0"/>
    <trip id="bus2" type="bus_bus" depart="138.19" departLane="best" departSpeed="max" from="587800915#0" to="555600348"/>
    <trip id="bus3" type="bus_bus" depart="207.28" departLane="best" departSpeed="max" from="587800915#0" to="555600348"/>
    <trip id="bus4" type="bus_bus" depart="276.37" departLane="best" departSpeed="max" from="-888879165#3" to="-739723515#1"/>
    <trip id="bus5" type="bus_bus" depart="345.47" departLane="best" departSpeed="max" from="1307885878" to="898487493#2"/>
    <trip id="bus6" type="bus_bus" depart="414.56" departLane="best" departSpeed="max" from="615037319" to="-739723515#1"/>
    <trip id="bus7" type="bus_bus" depart="483.66" departLane="best" departSpeed="max" from="615037319" to="890146629"/>
    <trip id="bus8" type="bus_bus" depart="552.75" departLane="best" departSpeed="max" from="615037319" to="898487493#1"/>
    <trip id="bus9" type="bus_bus" depart="621.84" departLane="best" from="-258656153#2" to="587800918#5"/>
    <trip id="bus10" type="bus_bus" depart="690.94" departLane="best" departSpeed="max" from="323987231#0" to="586664246#3"/>
    <trip id="bus11" type="bus_bus" depart="760.03" departLane="best" departSpeed="max" from="1305093055#0" to="-739723515#1"/>
    <trip id="bus12" type="bus_bus" depart="829.12" departLane="best" departSpeed="max" from="1307885878" to="890146629"/>
    <trip id="bus13" type="bus_bus" depart="898.22" departLane="best" from="109505208#2" to="977815031"/>
    <trip id="bus14" type="bus_bus" depart="967.31" departLane="best" departSpeed="max" from="-888879165#3" to="587800918#5"/>
    <trip id="bus15" type="bus_bus" depart="1036.40" departLane="best" departSpeed="max" from="-555600348" to="977815031"/>
    <trip id="bus16" type="bus_bus" depart="1105.50" departLane="best" from="-586664246#4" to="-323987231#0"/>
    <trip id="bus17" type="bus_bus" depart="1174.59" departLane="best" departSpeed="max" from="615037319" to="-739723515#1"/>
    <trip id="bus18" type="bus_bus" depart="1243.69" departLane="best" departSpeed="max" from="323987231#0" to="898487483#1"/>
    <trip id="bus19" type="bus_bus" depart="1312.78" departLane="best" from="-586664246#4" to="1305093055#1"/>
    <trip id="bus20" type="bus_bus" depart="1381.87" departLane="best" departSpeed="max" from="587800915#0" to="586657908#3"/>
    <trip id="bus21" type="bus_bus" depart="1450.97" departLane="best" departSpeed="max" from="587800915#0" to="109505204#0"/>
    <trip id="bus22" type="bus_bus" depart="1520.06" departLane="best" departSpeed="max" from="367762382#0" to="898487493#0"/>
    <trip id="bus23" type="bus_bus" depart="1589.15" departLane="best" from="-350146691#1" to="-323987231#0"/>
    <trip id="bus24" type="bus_bus" depart="1658.25" departLane="best" from="-350146688#5" to="362714491"/>
    <trip id="bus25" type="bus_bus" depart="1727.34" departLane="best" departSpeed="max" from="1305093055#0" to="-739723515#1"/>
    <trip id="bus26" type="bus_bus" depart="1796.43" departLane="best" from="-109505204#0" to="587800918#5"/>
    <trip id="bus27" type="bus_bus" depart="1865.53" departLane="best" departSpeed="max" from="515970250" to="362714491"/>
    <trip id="bus28" type="bus_bus" depart="1934.62" departLane="best" departSpeed="max" from="587800915#0" to="555600348"/>
    <trip id="bus29" type="bus_bus" depart="2003.72" departLane="best" from="586664246#0" to="890146629"/>
    <trip id="bus30" type="bus_bus" depart="2072.81" departLane="best" departSpeed="max" from="-888879165#3" to="-323987231#0"/>
    <trip id="bus31" type="bus_bus" depart="2141.90" departLane="best" from="586664246#3" to="-739723515#1"/>
    <trip id="bus32" type="bus_bus" depart="2211.00" departLane="best" departSpeed="max" from="615037319" to="890146629"/>
    <trip id="bus33" type="bus_bus" depart="2280.09" departLane="best" from="898487483#0" to="-739723515#1"/>
    <trip id="bus34" type="bus_bus" depart="2349.18" departLane="best" from="898487493#0" to="362714491"/>
    <trip id="bus35" type="bus_bus" depart="2418.28" departLane="best" from="898487483#0" to="-739723515#1"/>
    <trip id="bus36" type="bus_bus" depart="2487.37" departLane="best" departSpeed="max" from="515970250" to="109505204#1"/>
    <trip id="bus37" type="bus_bus" depart="2556.46" departLane="best" departSpeed="max" from="323987231#0" to="586664246#2"/>
    <trip id="bus38" type="bus_bus" depart="2625.56" departLane="best" departSpeed="max" from="515970250" to="109505204#0"/>
    <trip id="bus39" type="bus_bus" depart="2694.65" departLane="best" from="-350146691#0" to="1305093055#1"/>
    <trip id="bus40" type="bus_bus" depart="2763.75" departLane="best" departSpeed="max" from="587800915#0" to="-258656153#3"/>
    <trip id="bus41" type="bus_bus" depart="2832.84" departLane="best" from="586657042#1" to="587800918#5"/>
    <trip id="bus42" type="bus_bus" depart="2901.93" departLane="best" departSpeed="max" from="323987231#0" to="-1117713207#1"/>
    <trip id="bus43" type="bus_bus" depart="2971.03" departLane="best" departSpeed="max" from="1307885878" to="888879165#0"/>
    <trip id="bus44" type="bus_bus" depart="3040.12" departLane="best" departSpeed="max" from="587800915#0" to="362714491"/>
    <trip id="bus45" type="bus_bus" depart="3109.21" departLane="best" departSpeed="max" from="615037319" to="587800918#1"/>
    <trip id="bus46" type="bus_bus" depart="3178.31" departLane="best" from="109505204#1" to="587800918#5"/>
    <trip id="bus47" type="bus_bus" depart="3247.40" departLane="best" departSpeed="max" from="587800915#0" to="898487493#2"/>
    <trip id="bus48" type="bus_bus" depart="3316.49" departLane="best" departSpeed="max" from="1305093055#0" to="587800918#1"/>
    <trip id="bus49" type="bus_bus" depart="3385.59" departLane="best" departSpeed="max" from="-888879165#3" to="-323987231#0"/>
    <trip id="bus50" type="bus_bus" depart="3454.68" departLane="best" from="586657042#0" to="-323987231#0"/>
    <trip id="bus51" type="bus_bus" depart="3523.78" departLane="best" from="-350146688#3" to="587800918#5"/>
    <trip id="bus52" type="bus_bus" depart="3592.87" departLane="best" departSpeed="max" from="587800915#0" to="555600348"/>
</routes>
