<?xml version="1.0" encoding="UTF-8"?>

<!-- generated on 2025-10-26 17:40:25 by Eclipse SUMO netedit Version 1.24.0
-->

<routes xmlns:xsi="http://www.w3.org/2001/XMLSchema-instance" xsi:noNamespaceSchemaLocation="http://sumo.dlr.de/xsd/routes_file.xsd">
    <!-- VTypes -->
    <vType id="bus_bus" vClass="bus"/>
    <!-- Vehicles, persons and containers (sorted by depart) -->
    <trip id="bus0" type="bus_bus" depart="0.00" departLane="best" departSpeed="max" from="-368286982" to="-367762382#1"/>
    <trip id="bus1" type="bus_bus" depart="3.59" departLane="best" from="615037319#0" to="-227131720#0"/>
    <trip id="bus2" type="bus_bus" depart="7.18" departLane="best" departSpeed="max" from="-628456652#1" to="-116690479#1"/>
    <trip id="bus3" type="bus_bus" depart="10.77" departLane="best" from="-368027023#1" to="116690479#3"/>
    <trip id="bus4" type="bus_bus" depart="14.36" departLane="best" from="-109505207#0" to="-359450383#0"/>
    <trip id="bus5" type="bus_bus" depart="17.95" departLane="best" from="-368027034" to="337132072#4"/>
    <trip id="bus6" type="bus_bus" depart="21.54" departLane="best" from="462986979" to="367700934#1"/>
    <trip id="bus7" type="bus_bus" depart="25.13" departLane="best" departSpeed="max" from="-587793740" to="-337540075"/>
    <trip id="bus8" type="bus_bus" depart="28.71" departLane="best" departSpeed="max" from="620874944" to="-586659718"/>
    <trip id="bus9" type="bus_bus" depart="32.30" departLane="best" from="-227100507#0" to="-323987231#0"/>
    <trip id="bus10" type="bus_bus" depart="35.89" departLane="best" from="586657908#0" to="337540073"/>
    <trip id="bus11" type="bus_bus" depart="39.48" departLane="best" from="462987550" to="368096545#2"/>
    <trip id="bus12" type="bus_bus" depart="43.07" departLane="best" from="1324287528#0" to="795671604#3"/>
    <trip id="bus13" type="bus_bus" depart="46.66" departLane="best" departSpeed="max" from="-620775234#2" to="227019974#1"/>
    <trip id="bus14" type="bus_bus" depart="50.25" departLane="best" departSpeed="max" from="586595416" to="33973140#0"/>
    <trip id="bus15" type="bus_bus" depart="53.84" departLane="best" from="586664246#2" to="327075459#0"/>
    <trip id="bus16" type="bus_bus" depart="57.43" departLane="best" from="367194255#4" to="-116690593#0"/>
    <trip id="bus17" type="bus_bus" depart="61.02" departLane="best" from="-368096544#1" to="-444476598"/>
    <trip id="bus18" type="bus_bus" depart="64.61" departLane="best" departSpeed="max" from="-226946949" to="-368027027#0"/>
    <trip id="bus19" type="bus_bus" depart="68.20" departLane="best" from="-327075459#1" to="-368190050#0"/>
    <trip id="bus20" type="bus_bus" depart="71.79" departLane="best" departSpeed="max" from="337540075" to="-620768869#2"/>
    <trip id="bus21" type="bus_bus" depart="75.38" departLane="best" from="-620768869#2" to="-367700883#1"/>
    <trip id="bus22" type="bus_bus" depart="78.97" departLane="best" departSpeed="max" from="-368209083" to="620862578#6"/>
    <trip id="bus23" type="bus_bus" depart="82.55" departLane="best" from="-34990516#1" to="368096545#2"/>
    <trip id="bus24" type="bus_bus" depart="86.14" departLane="best" from="890146631" to="341456566"/>
    <trip id="bus25" type="bus_bus" depart="89.73" departLane="best" from="586657042#0" to="444811599#1"/>
    <trip id="bus26" type="bus_bus" depart="93.32" departLane="best" departSpeed="max" from="-555601438#2" to="-368104071#5"/>
    <trip id="bus27" type="bus_bus" depart="96.91" departLane="best" from="-367762382#0" to="620865939"/>
    <trip id="bus28" type="bus_bus" depart="100.50" departLane="best" from="587800915#5" to="-462987553"/>
    <trip id="bus29" type="bus_bus" depart="104.09" departLane="best" from="33973140#3" to="-620862579"/>
    <trip id="bus30" type="bus_bus" depart="107.68" departLane="best" from="620768869#4" to="103759573"/>
    <trip id="bus31" type="bus_bus" depart="111.27" departLane="best" departSpeed="max" from="-368209083" to="-368096544#2"/>
    <trip id="bus32" type="bus_bus" depart="114.86" departLane="best" departSpeed="max" from="227131720#0" to="-368104071#1"/>
    <trip id="bus33" type="bus_bus" depart="118.45" departLane="best" departSpeed="max" from="-620862578#6" to="-367707574#1"/>
    <trip id="bus34" type="bus_bus" depart="122.04" departLane="best" from="977815033#0" to="116690593#1"/>
    <trip id="bus35" type="bus_bus" depart="125.63" departLane="best" departSpeed="max" from="444811599#0" to="-795671604#0"/>
    <trip id="bus36" type="bus_bus" depart="129.22" departLane="best" from="-1324287528#2" to="-620849594"/>
    <trip id="bus37" type="bus_bus" depart="132.80" departLane="best" from="795671604#1" to="587800915#0"/>
    <trip id="bus38" type="bus_bus" depart="136.39" departLane="best" from="-337132072#3" to="-850677551#0"/>
    <trip id="bus39" type="bus_bus" depart="139.98" departLane="best" from="1012133718#3" to="621949168#2"/>
    <trip id="bus40" type="bus_bus" depart="143.57" departLane="best" departSpeed="max" from="116690593#0" to="-341456542"/>
    <trip id="bus41" type="bus_bus" depart="147.16" departLane="best" from="620768869#3" to="587800918#2"/>
    <trip id="bus42" type="bus_bus" depart="150.75" departLane="best" departSpeed="max" from="337132049" to="-337540075"/>
    <trip id="bus43" type="bus_bus" depart="154.34" departLane="best" from="368104091#2" to="226946947"/>
    <trip id="bus44" type="bus_bus" depart="157.93" departLane="best" from="380090117#0" to="1324287528#3"/>
    <trip id="bus45" type="bus_bus" depart="161.52" departLane="best" from="-1012133718#0" to="-555600351#0"/>
    <trip id="bus46" type="bus_bus" depart="165.11" departLane="best" from="-555600352" to="-1304287974"/>
    <trip id="bus47" type="bus_bus" depart="168.70" departLane="best" from="587800918#1" to="620865939"/>
    <trip id="bus48" type="bus_bus" depart="172.29" departLane="best" departSpeed="max" from="-227019974#1" to="109505208#1"/>
    <trip id="bus49" type="bus_bus" depart="175.88" departLane="best" departSpeed="max" from="-226946947" to="368204852"/>
    <trip id="bus50" type="bus_bus" depart="179.47" departLane="best" from="368104091#5" to="-337132049"/>
    <trip id="bus51" type="bus_bus" depart="183.06" departLane="best" from="109505208#0" to="226946949"/>
    <trip id="bus52" type="bus_bus" depart="186.64" departLane="best" departSpeed="max" from="-368209083" to="587800918#3"/>
    <trip id="bus53" type="bus_bus" depart="190.23" departLane="best" from="1324287528#3" to="368096545#3"/>
    <trip id="bus54" type="bus_bus" depart="193.82" departLane="best" departSpeed="max" from="-367700883#3" to="-462987552#0"/>
    <trip id="bus55" type="bus_bus" depart="197.41" departLane="best" from="898487494#1" to="34990514#4"/>
    <trip id="bus56" type="bus_bus" depart="201.00" departLane="best" from="-586664246#4" to="337132072#3"/>
    <trip id="bus57" type="bus_bus" depart="204.59" departLane="best" from="-368096544#3" to="-367762378"/>
    <trip id="bus58" type="bus_bus" depart="208.18" departLane="best" departSpeed="max" from="-226946947" to="341456563"/>
    <trip id="bus59" type="bus_bus" depart="211.77" departLane="best" from="-368096544#2" to="620768866#1"/>
    <trip id="bus60" type="bus_bus" depart="215.36" departLane="best" from="586664246#0" to="-1408953126#0"/>
    <trip id="bus61" type="bus_bus" depart="218.95" departLane="best" from="-368096546#0" to="359450383#1"/>
    <trip id="bus62" type="bus_bus" depart="222.54" departLane="best" from="-367762382#3" to="-337132049"/>
    <trip id="bus63" type="bus_bus" depart="226.13" departLane="best" from="620862578#1" to="292749336#3"/>
    <trip id="bus64" type="bus_bus" depart="229.72" departLane="best" from="109505207#3" to="444826908#0"/>
    <trip id="bus65" type="bus_bus" depart="233.31" departLane="best" from="462987550" to="-350146685#1"/>
    <trip id="bus66" type="bus_bus" depart="236.90" departLane="best" from="-253653636" to="-795671604#6"/>
    <trip id="bus67" type="bus_bus" depart="240.48" departLane="best" from="-644261214" to="103765643#1"/>
    <trip id="bus68" type="bus_bus" depart="244.07" departLane="best" from="368027034" to="362871972#1"/>
    <trip id="bus69" type="bus_bus" depart="247.66" departLane="best" from="850677551#3" to="-323987231#0"/>
    <trip id="bus70" type="bus_bus" depart="251.25" departLane="best" departSpeed="max" from="-620865939" to="-586664246#0"/>
    <trip id="bus71" type="bus_bus" depart="254.84" departLane="best" from="586664246#2" to="-368096545#0"/>
    <trip id="bus72" type="bus_bus" depart="258.43" departLane="best" departSpeed="max" from="-628456652#1" to="-368190050#0"/>
    <trip id="bus73" type="bus_bus" depart="262.02" departLane="best" from="-368104071#5" to="620775234#2"/>
    <trip id="bus74" type="bus_bus" depart="265.61" departLane="best" from="-861783801" to="587800915#1"/>
    <trip id="bus75" type="bus_bus" depart="269.20" departLane="best" from="977815033#1" to="586657908#3"/>
    <trip id="bus76" type="bus_bus" depart="272.79" departLane="best" from="739723515#1" to="620862578#0"/>
    <trip id="bus77" type="bus_bus" depart="276.38" departLane="best" from="586657908#1" to="-33768805#5"/>
    <trip id="bus78" type="bus_bus" depart="279.97" departLane="best" from="116690479#0" to="-367700934#1"/>
    <trip id="bus79" type="bus_bus" depart="283.56" departLane="best" departSpeed="max" from="-620775234#2" to="850677552"/>
    <trip id="bus80" type="bus_bus" depart="287.15" departLane="best" departSpeed="max" from="620874944" to="898487494#1"/>
    <trip id="bus81" type="bus_bus" depart="290.74" departLane="best" departSpeed="max" from="-341456566" to="-444811599#1"/>
    <trip id="bus82" type="bus_bus" depart="294.32" departLane="best" from="739723515#1" to="327075459#1"/>
    <trip id="bus83" type="bus_bus" depart="297.91" departLane="best" from="-1304287974" to="337132072#0"/>
    <trip id="bus84" type="bus_bus" depart="301.50" departLane="best" departSpeed="max" from="116690593#0" to="586664246#2"/>
    <trip id="bus85" type="bus_bus" depart="305.09" departLane="best" from="-34990514#0" to="628456652#1"/>
    <trip id="bus86" type="bus_bus" depart="308.68" departLane="best" departSpeed="max" from="-226946949" to="-34990516#0"/>
    <trip id="bus87" type="bus_bus" depart="312.27" departLane="best" departSpeed="max" from="331675474" to="362871972#2"/>
    <trip id="bus88" type="bus_bus" depart="315.86" departLane="best" from="-368096545#3" to="-335575150"/>
    <trip id="bus89" type="bus_bus" depart="319.45" departLane="best" departSpeed="max" from="615037303" to="-368096544#2"/>
    <trip id="bus90" type="bus_bus" depart="323.04" departLane="best" departSpeed="max" from="331675474" to="33973140#0"/>
    <trip id="bus91" type="bus_bus" depart="326.63" departLane="best" departSpeed="max" from="-628456652#1" to="337132072#0"/>
    <trip id="bus92" type="bus_bus" depart="330.22" departLane="best" from="1305093055#0" to="620862578#6"/>
    <trip id="bus93" type="bus_bus" depart="333.81" departLane="best" from="-368096546#1" to="-620862579"/>
    <trip id="bus94" type="bus_bus" depart="337.40" departLane="best" from="34990515#2" to="-444826908#0"/>
    <trip id="bus95" type="bus_bus" depart="340.99" departLane="best" departSpeed="max" from="-226946947" to="1012133729"/>
    <trip id="bus96" type="bus_bus" depart="344.57" departLane="best" from="977815033#0" to="898487494#1"/>
    <trip id="bus97" type="bus_bus" depart="348.16" departLane="best" departSpeed="max" from="-226946947" to="-367700934#1"/>
    <trip id="bus98" type="bus_bus" depart="351.75" departLane="best" departSpeed="max" from="-368209083" to="620862578#5"/>
    <trip id="bus99" type="bus_bus" depart="355.34" departLane="best" from="587800918#3" to="615037320#1"/>
    <trip id="bus100" type="bus_bus" depart="358.93" departLane="best" from="-620768869#2" to="-337540075"/>
    <trip id="bus101" type="bus_bus" depart="362.52" departLane="best" departSpeed="max" from="586595416" to="367707574#2"/>
    <trip id="bus102" type="bus_bus" depart="366.11" departLane="best" departSpeed="max" from="337132049" to="888879165"/>
    <trip id="bus103" type="bus_bus" depart="369.70" departLane="best" departSpeed="max" from="555600351#0" to="-444826908#0"/>
    <trip id="bus104" type="bus_bus" depart="373.29" departLane="best" departSpeed="max" from="341096510#0" to="620862578#6"/>
    <trip id="bus105" type="bus_bus" depart="376.88" departLane="best" from="-337132072#1" to="227019974#1"/>
    <trip id="bus106" type="bus_bus" depart="380.47" departLane="best" departSpeed="max" from="-368286982" to="337540073"/>
    <trip id="bus107" type="bus_bus" depart="384.06" departLane="best" departSpeed="max" from="337540075" to="-368104071#2"/>
    <trip id="bus108" type="bus_bus" depart="387.65" departLane="best" from="116690479#2" to="620768866#1"/>
    <trip id="bus109" type="bus_bus" depart="391.24" departLane="best" from="-644261214" to="-368104091#6"/>
    <trip id="bus110" type="bus_bus" depart="394.83" departLane="best" departSpeed="max" from="337540075" to="-368104071#0"/>
    <trip id="bus111" type="bus_bus" depart="398.41" departLane="best" from="368096545#2" to="227019974#0"/>
    <trip id="bus112" type="bus_bus" depart="402.00" departLane="best" from="-795671604#0" to="-103765643#3"/>
    <trip id="bus113" type="bus_bus" depart="405.59" departLane="best" departSpeed="max" from="-226946949" to="615037321"/>
    <trip id="bus114" type="bus_bus" depart="409.18" departLane="best" departSpeed="max" from="586595416" to="337132054"/>
    <trip id="bus115" type="bus_bus" depart="412.77" departLane="best" from="-555600352" to="620768866#0"/>
    <trip id="bus116" type="bus_bus" depart="416.36" departLane="best" from="-368104071#4" to="-327075459#1"/>
    <trip id="bus117" type="bus_bus" depart="419.95" departLane="best" departSpeed="max" from="-620865939" to="33973140#1"/>
    <trip id="bus118" type="bus_bus" depart="423.54" departLane="best" from="586664246#4" to="795671604#5"/>
    <trip id="bus119" type="bus_bus" depart="427.13" departLane="best" from="462987552#1" to="615037320#2"/>
    <trip id="bus120" type="bus_bus" depart="430.72" departLane="best" from="-109505204#2" to="368096547#0"/>
    <trip id="bus121" type="bus_bus" depart="434.31" departLane="best" from="-586661204" to="620862578#3"/>
    <trip id="bus122" type="bus_bus" depart="437.90" departLane="best" from="462987552#1" to="-368104071#4"/>
    <trip id="bus123" type="bus_bus" depart="441.49" departLane="best" from="-368027038" to="555601438#0"/>
    <trip id="bus124" type="bus_bus" depart="445.08" departLane="best" departSpeed="max" from="-586659413" to="587800915#3"/>
    <trip id="bus125" type="bus_bus" depart="448.67" departLane="best" from="739723515#0" to="-368190050#0"/>
    <trip id="bus126" type="bus_bus" depart="452.25" departLane="best" from="33768805#0" to="-620869256"/>
    <trip id="bus127" type="bus_bus" depart="455.84" departLane="best" from="850677551#0" to="212414966"/>
    <trip id="bus128" type="bus_bus" depart="459.43" departLane="best" from="795671604#0" to="-341456542"/>
    <trip id="bus129" type="bus_bus" depart="463.02" departLane="best" from="621949168#4" to="-368104071#3"/>
    <trip id="bus130" type="bus_bus" depart="466.61" departLane="best" from="-337132072#10" to="-850677551#0"/>
    <trip id="bus131" type="bus_bus" depart="470.20" departLane="best" from="368027027#2" to="-462987552#1"/>
    <trip id="bus132" type="bus_bus" depart="473.79" departLane="best" departSpeed="max" from="335575150" to="116690596#1"/>
    <trip id="bus133" type="bus_bus" depart="477.38" departLane="best" from="1324287528#2" to="368027038"/>
    <trip id="bus134" type="bus_bus" depart="480.97" departLane="best" from="368096545#3" to="362714491"/>
    <trip id="bus135" type="bus_bus" depart="484.56" departLane="best" departSpeed="max" from="-620768866#1" to="-1408953126#0"/>
    <trip id="bus136" type="bus_bus" depart="488.15" departLane="best" from="341096510#1" to="-555601438#1"/>
    <trip id="bus137" type="bus_bus" depart="491.74" departLane="best" from="-555600865" to="-620874944"/>
    <trip id="bus138" type="bus_bus" depart="495.33" departLane="best" from="-620863350" to="-444811599#0"/>
    <trip id="bus139" type="bus_bus" depart="498.92" departLane="best" from="-33768805#1" to="-739723515#0"/>
    <trip id="bus140" type="bus_bus" depart="502.50" departLane="best" from="620862578#5" to="364177895#0"/>
    <trip id="bus141" type="bus_bus" depart="506.09" departLane="best" from="-462987552#1" to="226946949"/>
    <trip id="bus142" type="bus_bus" depart="509.68" departLane="best" from="-1012133718#0" to="-444476598"/>
    <trip id="bus143" type="bus_bus" depart="513.27" departLane="best" from="-795671604#2" to="336988370#0"/>
    <trip id="bus144" type="bus_bus" depart="516.86" departLane="best" from="-861783801" to="-367700934#1"/>
    <trip id="bus145" type="bus_bus" depart="520.45" departLane="best" from="109505207#3" to="620768866#1"/>
    <trip id="bus146" type="bus_bus" depart="524.04" departLane="best" from="444826908#0" to="-33836788#2"/>
    <trip id="bus147" type="bus_bus" depart="527.63" departLane="best" from="34990516#0" to="-367762382#2"/>
    <trip id="bus148" type="bus_bus" depart="531.22" departLane="best" departSpeed="max" from="-367700883#3" to="-109505208#3"/>
    <trip id="bus149" type="bus_bus" depart="534.81" departLane="best" from="-368104071#1" to="1049377329"/>
    <trip id="bus150" type="bus_bus" depart="538.40" departLane="best" from="586657908#2" to="-1408953126#0"/>
    <trip id="bus151" type="bus_bus" depart="541.99" departLane="best" from="33973140#4" to="-1012133729"/>
    <trip id="bus152" type="bus_bus" depart="545.58" departLane="best" from="368096547#2" to="368286982"/>
    <trip id="bus153" type="bus_bus" depart="549.17" departLane="best" from="-337132072#0" to="-795671604#2"/>
    <trip id="bus154" type="bus_bus" depart="552.76" departLane="best" from="-368104071#4" to="586661204"/>
    <trip id="bus155" type="bus_bus" depart="556.34" departLane="best" departSpeed="max" from="1012133719" to="462986979"/>
    <trip id="bus156" type="bus_bus" depart="559.93" departLane="best" from="34990514#1" to="888879165"/>
    <trip id="bus157" type="bus_bus" depart="563.52" departLane="best" from="615037318" to="33768805#3"/>
    <trip id="bus158" type="bus_bus" depart="567.11" departLane="best" departSpeed="max" from="586595416" to="226946949"/>
    <trip id="bus159" type="bus_bus" depart="570.70" departLane="best" from="615037321" to="368104071#2"/>
    <trip id="bus160" type="bus_bus" depart="574.29" departLane="best" from="109505207#4" to="-368096547#1"/>
    <trip id="bus161" type="bus_bus" depart="577.88" departLane="best" from="-368104071#3" to="341456566"/>
    <trip id="bus162" type="bus_bus" depart="581.47" departLane="best" from="368104091#5" to="1305093055#1"/>
    <trip id="bus163" type="bus_bus" depart="585.06" departLane="best" from="337132072#8" to="-368104091#4"/>
    <trip id="bus164" type="bus_bus" depart="588.65" departLane="best" departSpeed="max" from="-368286982" to="-555600351#0"/>
    <trip id="bus165" type="bus_bus" depart="592.24" departLane="best" from="1408953124#1" to="-337132072#2"/>
    <trip id="bus166" type="bus_bus" depart="595.83" departLane="best" from="367700883#0" to="-1324287528#2"/>
    <trip id="bus167" type="bus_bus" depart="599.42" departLane="best" departSpeed="max" from="-620865939" to="226946947"/>
    <trip id="bus168" type="bus_bus" depart="603.01" departLane="best" from="-628456652#0" to="-367194255#4"/>
    <trip id="bus169" type="bus_bus" depart="606.60" departLane="best" departSpeed="max" from="-628456652#1" to="620768866#1"/>
    <trip id="bus170" type="bus_bus" depart="610.18" departLane="best" from="323987231#1" to="367700883#3"/>
    <trip id="bus171" type="bus_bus" depart="613.77" departLane="best" from="586659718" to="368209083"/>
    <trip id="bus172" type="bus_bus" depart="617.36" departLane="best" departSpeed="max" from="-620775234#2" to="-1012133729"/>
    <trip id="bus173" type="bus_bus" depart="620.95" departLane="best" from="586657908#4" to="621949168#2"/>
    <trip id="bus174" type="bus_bus" depart="624.54" departLane="best" departSpeed="max" from="-628456652#1" to="368104071#5"/>
    <trip id="bus175" type="bus_bus" depart="628.13" departLane="best" departSpeed="max" from="1408953126#0" to="337540073"/>
    <trip id="bus176" type="bus_bus" depart="631.72" departLane="best" from="-795671604#7" to="-116690479#1"/>
    <trip id="bus177" type="bus_bus" depart="635.31" departLane="best" departSpeed="max" from="-620865939" to="-33768805#4"/>
    <trip id="bus178" type="bus_bus" depart="638.90" departLane="best" from="109505204#0" to="-337132049"/>
    <trip id="bus179" type="bus_bus" depart="642.49" departLane="best" from="337132072#4" to="-1117713207#1"/>
    <trip id="bus180" type="bus_bus" depart="646.08" departLane="best" departSpeed="max" from="-620862578#6" to="227131720#1"/>
    <trip id="bus181" type="bus_bus" depart="649.67" departLane="best" from="-109505207#1" to="34990514#1"/>
    <trip id="bus182" type="bus_bus" depart="653.26" departLane="best" from="368104071#0" to="586657908#0"/>
    <trip id="bus183" type="bus_bus" depart="656.85" departLane="best" from="-368104091#1" to="-227100507#1"/>
    <trip id="bus184" type="bus_bus" depart="660.44" departLane="best" from="977815033#1" to="-615037320#2"/>
    <trip id="bus185" type="bus_bus" depart="664.02" departLane="best" from="33973140#0" to="368104091#4"/>
    <trip id="bus186" type="bus_bus" depart="667.61" departLane="best" departSpeed="max" from="620869256" to="-359450383#0"/>
    <trip id="bus187" type="bus_bus" depart="671.20" departLane="best" from="-103765643#0" to="-337540075"/>
    <trip id="bus188" type="bus_bus" depart="674.79" departLane="best" departSpeed="max" from="227131720#0" to="-367707574#0"/>
    <trip id="bus189" type="bus_bus" depart="678.38" departLane="best" from="367194255#0" to="368209083"/>
    <trip id="bus190" type="bus_bus" depart="681.97" departLane="best" from="-34990515#1" to="33768751"/>
    <trip id="bus191" type="bus_bus" depart="685.56" departLane="best" from="368096547#0" to="-331675474"/>
    <trip id="bus192" type="bus_bus" depart="689.15" departLane="best" from="-337132072#1" to="-109505208#4"/>
    <trip id="bus193" type="bus_bus" depart="692.74" departLane="best" from="-555601438#1" to="364177895#0"/>
    <trip id="bus194" type="bus_bus" depart="696.33" departLane="best" from="362871972#0" to="341456542"/>
    <trip id="bus195" type="bus_bus" depart="699.92" departLane="best" from="-327075459#1" to="368286982"/>
    <trip id="bus196" type="bus_bus" depart="703.51" departLane="best" from="586657908#2" to="337540073"/>
    <trip id="bus197" type="bus_bus" depart="707.10" departLane="best" departSpeed="max" from="444476598" to="-615037318"/>
    <trip id="bus198" type="bus_bus" depart="710.69" departLane="best" from="-795671604#1" to="-620772305#1"/>
    <trip id="bus199" type="bus_bus" depart="714.27" departLane="best" from="116690593#1" to="-586664246#1"/>
    <trip id="bus200" type="bus_bus" depart="717.86" departLane="best" from="586657908#1" to="555601438#2"/>
    <trip id="bus201" type="bus_bus" depart="721.45" departLane="best" from="-337132054" to="628456652#1"/>
    <trip id="bus202" type="bus_bus" depart="725.04" departLane="best" from="367700883#1" to="-850677551#1"/>
    <trip id="bus203" type="bus_bus" depart="728.63" departLane="best" departSpeed="max" from="-368286982" to="462987553"/>
    <trip id="bus204" type="bus_bus" depart="732.22" departLane="best" from="-795671604#6" to="368096545#3"/>
    <trip id="bus205" type="bus_bus" depart="735.81" departLane="best" departSpeed="max" from="-368209083" to="586664246#1"/>
    <trip id="bus206" type="bus_bus" depart="739.40" departLane="best" departSpeed="max" from="586595416" to="-227131720#0"/>
    <trip id="bus207" type="bus_bus" depart="742.99" departLane="best" from="587800918#4" to="-368096544#0"/>
    <trip id="bus208" type="bus_bus" depart="746.58" departLane="best" from="103765643#1" to="33768805#1"/>
    <trip id="bus209" type="bus_bus" depart="750.17" departLane="best" departSpeed="max" from="-620775234#2" to="-116690479#1"/>
    <trip id="bus210" type="bus_bus" depart="753.76" departLane="best" from="586657908#2" to="-34990514#2"/>
    <trip id="bus211" type="bus_bus" depart="757.35" departLane="best" from="-367762382#1" to="444826919#2"/>
    <trip id="bus212" type="bus_bus" depart="760.94" departLane="best" departSpeed="max" from="-587793740" to="615037320#1"/>
    <trip id="bus213" type="bus_bus" depart="764.53" departLane="best" from="367194255#1" to="-368104091#5"/>
    <trip id="bus214" type="bus_bus" depart="768.11" departLane="best" departSpeed="max" from="-1012133718#4" to="620865939"/>
    <trip id="bus215" type="bus_bus" depart="771.70" departLane="best" departSpeed="max" from="-227019974#1" to="368027055"/>
    <trip id="bus216" type="bus_bus" depart="775.29" departLane="best" from="362871972#0" to="34990514#4"/>
    <trip id="bus217" type="bus_bus" depart="778.88" departLane="best" departSpeed="max" from="116690480#0" to="444826919#2"/>
    <trip id="bus218" type="bus_bus" depart="782.47" departLane="best" from="-227100507#1" to="-367762382#0"/>
    <trip id="bus219" type="bus_bus" depart="786.06" departLane="best" from="362871972#1" to="-444826919#1"/>
    <trip id="bus220" type="bus_bus" depart="789.65" departLane="best" departSpeed="max" from="323987231#0" to="1049377329"/>
    <trip id="bus221" type="bus_bus" depart="793.24" departLane="best" departSpeed="max" from="1309954088" to="-795671604#2"/>
    <trip id="bus222" type="bus_bus" depart="796.83" departLane="best" from="368096546#0" to="-555601438#1"/>
    <trip id="bus223" type="bus_bus" depart="800.42" departLane="best" from="367194255#2" to="-368104091#1"/>
    <trip id="bus224" type="bus_bus" depart="804.01" departLane="best" from="-368104091#0" to="-335575150"/>
    <trip id="bus225" type="bus_bus" depart="807.60" departLane="best" from="-367700883#1" to="-335575150"/>
    <trip id="bus226" type="bus_bus" depart="811.19" departLane="best" from="1324287528#0" to="368209083"/>
    <trip id="bus227" type="bus_bus" depart="814.78" departLane="best" from="1122773432#0" to="368096544#2"/>
    <trip id="bus228" type="bus_bus" depart="818.37" departLane="best" from="795671604#5" to="1307885878"/>
    <trip id="bus229" type="bus_bus" depart="821.95" departLane="best" departSpeed="max" from="-444811602" to="-323987231#1"/>
    <trip id="bus230" type="bus_bus" depart="825.54" departLane="best" from="1312476762" to="-368104091#4"/>
    <trip id="bus231" type="bus_bus" depart="829.13" departLane="best" from="795671604#3" to="227019974#1"/>
    <trip id="bus232" type="bus_bus" depart="832.72" departLane="best" from="364177895#1" to="-337132049"/>
    <trip id="bus233" type="bus_bus" depart="836.31" departLane="best" from="587218913" to="109505208#4"/>
    <trip id="bus234" type="bus_bus" depart="839.90" departLane="best" from="587800915#3" to="292749336#6"/>
    <trip id="bus235" type="bus_bus" depart="843.49" departLane="best" from="620862578#5" to="109505204#1"/>
    <trip id="bus236" type="bus_bus" depart="847.08" departLane="best" from="555600351#1" to="-620869256"/>
    <trip id="bus237" type="bus_bus" depart="850.67" departLane="best" departSpeed="max" from="-226946947" to="341456563"/>
    <trip id="bus238" type="bus_bus" depart="854.26" departLane="best" from="-1222974661" to="-337540069#0"/>
    <trip id="bus239" type="bus_bus" depart="857.85" departLane="best" departSpeed="max" from="227131720#0" to="-444826908#3"/>
    <trip id="bus240" type="bus_bus" depart="861.44" departLane="best" from="898487494#0" to="-335575150"/>
    <trip id="bus241" type="bus_bus" depart="865.03" departLane="best" departSpeed="max" from="444811599#0" to="-367762382#3"/>
    <trip id="bus242" type="bus_bus" depart="868.62" departLane="best" from="1305093055#0" to="1012133718#3"/>
    <trip id="bus243" type="bus_bus" depart="872.21" departLane="best" from="-861783801" to="587800915#0"/>
    <trip id="bus244" type="bus_bus" depart="875.79" departLane="best" from="337132072#3" to="33768805#1"/>
    <trip id="bus245" type="bus_bus" depart="879.38" departLane="best" from="368096545#1" to="620865939"/>
    <trip id="bus246" type="bus_bus" depart="882.97" departLane="best" departSpeed="max" from="341096510#0" to="-337540075"/>
    <trip id="bus247" type="bus_bus" depart="886.56" departLane="best" from="-350146685#1" to="-1408953126#0"/>
    <trip id="bus248" type="bus_bus" depart="890.15" departLane="best" departSpeed="max" from="331675474" to="-444811599#0"/>
    <trip id="bus249" type="bus_bus" depart="893.74" departLane="best" from="359450383#0" to="620775234#2"/>
    <trip id="bus250" type="bus_bus" depart="897.33" departLane="best" departSpeed="max" from="444811599#0" to="341096510#1"/>
    <trip id="bus251" type="bus_bus" depart="900.92" departLane="best" departSpeed="max" from="341096510#0" to="620862578#5"/>
    <trip id="bus252" type="bus_bus" depart="904.51" departLane="best" from="-739723515#0" to="226946949"/>
    <trip id="bus253" type="bus_bus" depart="908.10" departLane="best" from="33768805#5" to="620768869#1"/>
    <trip id="bus254" type="bus_bus" depart="911.69" departLane="best" from="555601438#0" to="-1408953126#0"/>
    <trip id="bus255" type="bus_bus" depart="915.28" departLane="best" departSpeed="max" from="-34990514#4" to="-459934830#0"/>
    <trip id="bus256" type="bus_bus" depart="918.87" departLane="best" from="368096547#0" to="292749336#2"/>
    <trip id="bus257" type="bus_bus" depart="922.46" departLane="best" from="-444826908#1" to="-336988370#0"/>
    <trip id="bus258" type="bus_bus" depart="926.04" departLane="best" from="359450383#1" to="367700934#2"/>
    <trip id="bus259" type="bus_bus" depart="929.63" departLane="best" from="620863350" to="1122773432#1"/>