<?xml version="1.0" encoding="UTF-8"?>

<!-- generated on 2025-11-04 15:58:03 by Eclipse SUMO netedit Version 1.24.0
-->

<routes xmlns:xsi="http://www.w3.org/2001/XMLSchema-instance" xsi:noNamespaceSchemaLocation="http://sumo.dlr.de/xsd/routes_file.xsd">
    <!-- VTypes -->
    <vType id="truck_truck" vClass="truck"/>
    <!-- Vehicles, persons and containers (sorted by depart) -->
    <trip id="truck0" type="truck_truck" depart="0.00" departLane="best" from="-258656153#2" to="-109505204#2"/>
    <trip id="truck1" type="truck_truck" depart="34.55" departLane="best" from="-888879166" to="-323987231#0"/>
    <trip id="truck2" type="truck_truck" depart="69.09" departLane="best" departSpeed="max" from="587800915#0" to="586664246#0"/>
    <trip id="truck3" type="truck_truck" depart="103.64" departLane="best" from="-258656153#3" to="1305093055#1"/>
    <trip id="truck4" type="truck_truck" depart="138.19" departLane="best" departSpeed="max" from="367762382#0" to="898487483#0"/>
    <trip id="truck5" type="truck_truck" depart="172.73" departLane="best" departSpeed="max" from="-555600348" to="-739723515#1"/>
    <trip id="truck6" type="truck_truck" depart="207.28" departLane="best" from="-350146685#1" to="-323987231#0"/>
    <trip id="truck7" type="truck_truck" depart="241.83" departLane="best" from="1117713207#0" to="890146630"/>
    <trip id="truck8" type="truck_truck" depart="276.37" departLane="best" departSpeed="max" from="615037319" to="898487482"/>
    <trip id="truck9" type="truck_truck" depart="310.92" departLane="best" departSpeed="max" from="1305093055#0" to="890146629"/>
    <trip id="truck10" type="truck_truck" depart="345.47" departLane="best" from="-1117713207#1" to="898487493#1"/>
    <trip id="truck11" type="truck_truck" depart="380.02" departLane="best" departSpeed="max" from="367762382#0" to="350146688#6"/>
    <trip id="truck12" type="truck_truck" depart="414.56" departLane="best" departSpeed="max" from="587800915#0" to="1117713207#0"/>
    <trip id="truck13" type="truck_truck" depart="449.11" departLane="best" departSpeed="max" from="587800915#0" to="586657908#0"/>
    <trip id="truck14" type="truck_truck" depart="483.66" departLane="best" departSpeed="max" from="323987231#0" to="586657908#3"/>
    <trip id="truck15" type="truck_truck" depart="518.20" departLane="best" departSpeed="max" from="587800915#0" to="1117713207#0"/>
    <trip id="truck16" type="truck_truck" depart="552.75" departLane="best" from="-1117713207#1" to="587800918#5"/>
    <trip id="truck17" type="truck_truck" depart="587.30" departLane="best" from="1117713207#0" to="890146629"/>
    <trip id="truck18" type="truck_truck" depart="621.84" departLane="best" from="-586664246#1" to="1305093055#1"/>
    <trip id="truck19" type="truck_truck" depart="656.39" departLane="best" from="586664246#0" to="977815031"/>
    <trip id="truck20" type="truck_truck" depart="690.94" departLane="best" departSpeed="max" from="515970250" to="977815031"/>
    <trip id="truck21" type="truck_truck" depart="725.48" departLane="best" departSpeed="max" from="587800915#0" to="-1117713207#1"/>
    <trip id="truck22" type="truck_truck" depart="760.03" departLane="best" departSpeed="max" from="615037319" to="-341096510#1"/>
    <trip id="truck23" type="truck_truck" depart="794.58" departLane="best" departSpeed="max" from="323987231#0" to="-586664246#4"/>
    <trip id="truck24" type="truck_truck" depart="829.12" departLane="best" from="-350146688#6" to="977815031"/>
    <trip id="truck25" type="truck_truck" depart="863.67" departLane="best" departSpeed="max" from="323987231#0" to="555600352"/>
    <trip id="truck26" type="truck_truck" depart="898.22" departLane="best" departSpeed="max" from="1305093055#0" to="890146630"/>
    <trip id="truck27" type="truck_truck" depart="932.76" departLane="best" from="362871972#0" to="977815031"/>
    <trip id="truck28" type="truck_truck" depart="967.31" departLane="best" departSpeed="max" from="-555600348" to="-323987231#0"/>
    <trip id="truck29" type="truck_truck" depart="1001.86" departLane="best" from="-888879166" to="-323987231#0"/>
    <trip id="truck30" type="truck_truck" depart="1036.40" departLane="best" departSpeed="max" from="587800915#0" to="890146629"/>
    <trip id="truck31" type="truck_truck" depart="1070.95" departLane="best" from="109505207#3" to="587800918#5"/>
    <trip id="truck32" type="truck_truck" depart="1105.50" departLane="best" departSpeed="max" from="587800915#0" to="586657908#3"/>
    <trip id="truck33" type="truck_truck" depart="1140.05" departLane="best" from="-350146685#1" to="-323987231#0"/>
    <trip id="truck34" type="truck_truck" depart="1174.59" departLane="best" departSpeed="max" from="1307885878" to="350146688#6"/>
    <trip id="truck35" type="truck_truck" depart="1209.14" departLane="best" departSpeed="max" from="587800915#0" to="555600352"/>
    <trip id="truck36" type="truck_truck" depart="1243.69" departLane="best" from="587800915#3" to="1117713206"/>
    <trip id="truck37" type="truck_truck" depart="1278.23" departLane="best" departSpeed="max" from="-888879165#3" to="-323987231#0"/>
    <trip id="truck38" type="truck_truck" depart="1312.78" departLane="best" departSpeed="max" from="-555600352" to="890146629"/>
    <trip id="truck39" type="truck_truck" depart="1347.33" departLane="best" departSpeed="max" from="587800915#0" to="350146688#6"/>
    <trip id="truck40" type="truck_truck" depart="1381.87" departLane="best" departSpeed="max" from="323987231#0" to="-109505207#2"/>
    <trip id="truck41" type="truck_truck" depart="1416.42" departLane="best" from="109505204#0" to="890146629"/>
    <trip id="truck42" type="truck_truck" depart="1450.97" departLane="best" from="586657042#1" to="587800918#5"/>
    <trip id="truck43" type="truck_truck" depart="1485.51" departLane="best" departSpeed="max" from="-555600348" to="587800918#5"/>
    <trip id="truck44" type="truck_truck" depart="1520.06" departLane="best" departSpeed="max" from="1307885878" to="898487493#2"/>
    <trip id="truck45" type="truck_truck" depart="1554.61" departLane="best" departSpeed="max" from="615037319" to="-739723515#1"/>
    <trip id="truck46" type="truck_truck" depart="1589.15" departLane="best" from="890146631#0" to="587800918#1"/>
    <trip id="truck47" type="truck_truck" depart="1623.70" departLane="best" departSpeed="max" from="615037319" to="977815031"/>
    <trip id="truck48" type="truck_truck" depart="1658.25" departLane="best" from="1117713207#0" to="587800918#1"/>
    <trip id="truck49" type="truck_truck" depart="1692.79" departLane="best" departSpeed="max" from="587800915#0" to="-888879166"/>
    <trip id="truck50" type="truck_truck" depart="1727.34" departLane="best" departSpeed="max" from="323987231#0" to="350146685#0"/>
    <trip id="truck51" type="truck_truck" depart="1761.89" departLane="best" departSpeed="max" from="615037319" to="-739723515#1"/>
    <trip id="truck52" type="truck_truck" depart="1796.43" departLane="best" from="258656153#1" to="-323987231#0"/>
    <trip id="truck53" type="truck_truck" depart="1830.98" departLane="best" departSpeed="max" from="587800915#0" to="362714491"/>
    <trip id="truck54" type="truck_truck" depart="1865.53" departLane="best" from="362871972#0" to="587800918#5"/>
    <trip id="truck55" type="truck_truck" depart="1900.08" departLane="best" from="109505208#2" to="977815031"/>
    <trip id="truck56" type="truck_truck" depart="1934.62" departLane="best" departSpeed="max" from="615037319" to="587800915#3"/>
    <trip id="truck57" type="truck_truck" depart="1969.17" departLane="best" departSpeed="max" from="587800915#0" to="-109505207#2"/>
    <trip id="truck58" type="truck_truck" depart="2003.72" departLane="best" from="-350146688#3" to="587800918#5"/>
    <trip id="truck59" type="truck_truck" depart="2038.26" departLane="best" from="-586664246#1" to="977815031"/>
    <trip id="truck60" type="truck_truck" depart="2072.81" departLane="best" from="890146631#1" to="362714491"/>
    <trip id="truck61" type="truck_truck" depart="2107.36" departLane="best" departSpeed="max" from="1307885878" to="258656153#0"/>
    <trip id="truck62" type="truck_truck" depart="2141.90" departLane="best" departSpeed="max" from="615037319" to="977815031"/>
    <trip id="truck63" type="truck_truck" depart="2176.45" departLane="best" departSpeed="max" from="615037319" to="-323987231#0"/>
    <trip id="truck64" type="truck_truck" depart="2211.00" departLane="best" departSpeed="max" from="1305093055#0" to="898487482"/>
    <trip id="truck65" type="truck_truck" depart="2245.54" departLane="best" departSpeed="max" from="-888879165#3" to="-350146688#1"/>
    <trip id="truck66" type="truck_truck" depart="2280.09" departLane="best" departSpeed="max" from="-555600352" to="587800918#5"/>
    <trip id="truck67" type="truck_truck" depart="2314.64" departLane="best" departSpeed="max" from="587800915#0" to="890146630"/>
    <trip id="truck68" type="truck_truck" depart="2349.18" departLane="best" departSpeed="max" from="-888879165#3" to="-350146688#1"/>
    <trip id="truck69" type="truck_truck" depart="2383.73" departLane="best" departSpeed="max" from="515970250" to="1305093055#1"/>
    <trip id="truck70" type="truck_truck" depart="2418.28" departLane="best" departSpeed="max" from="587800915#0" to="586664246#0"/>
    <trip id="truck71" type="truck_truck" depart="2452.82" departLane="best" departSpeed="max" from="-888879165#3" to="587800918#5"/>
    <trip id="truck72" type="truck_truck" depart="2487.37" departLane="best" from="350146688#6" to="977815031"/>
    <trip id="truck73" type="truck_truck" depart="2521.92" departLane="best" from="-350146688#3" to="587800918#5"/>
    <trip id="truck74" type="truck_truck" depart="2556.46" departLane="best" from="890146632" to="-586664246#1"/>
    <trip id="truck75" type="truck_truck" depart="2591.01" departLane="best" departSpeed="max" from="1305093055#0" to="890146629"/>
    <trip id="truck76" type="truck_truck" depart="2625.56" departLane="best" departSpeed="max" from="615037319" to="-341096510#1"/>
    <trip id="truck77" type="truck_truck" depart="2660.11" departLane="best" departSpeed="max" from="-555600352" to="977815031"/>
    <trip id="truck78" type="truck_truck" depart="2694.65" departLane="best" departSpeed="max" from="587800915#0" to="-350146688#6"/>
    <trip id="truck79" type="truck_truck" depart="2729.20" departLane="best" from="-258656153#3" to="-1117713207#1"/>
    <trip id="truck80" type="truck_truck" depart="2763.75" departLane="best" departSpeed="max" from="-888879165#3" to="977815031"/>
    <trip id="truck81" type="truck_truck" depart="2798.29" departLane="best" from="-888879166" to="587800918#1"/>
    <trip id="truck82" type="truck_truck" depart="2832.84" departLane="best" from="898487483#1" to="1305093055#1"/>
    <trip id="truck83" type="truck_truck" depart="2867.39" departLane="best" departSpeed="max" from="-555600348" to="890146629"/>
    <trip id="truck84" type="truck_truck" depart="2901.93" departLane="best" from="890146632" to="587800918#5"/>
    <trip id="truck85" type="truck_truck" depart="2936.48" departLane="best" departSpeed="max" from="515970250" to="1305093055#1"/>
    <trip id="truck86" type="truck_truck" depart="2971.03" departLane="best" from="586664246#0" to="258656153#3"/>
    <trip id="truck87" type="truck_truck" depart="3005.57" departLane="best" from="258656153#0" to="977815031"/>
    <trip id="truck88" type="truck_truck" depart="3040.12" departLane="best" departSpeed="max" from="587800915#0" to="-888879166"/>
    <trip id="truck89" type="truck_truck" depart="3074.67" departLane="best" departSpeed="max" from="-555600348" to="-323987231#0"/>
    <trip id="truck90" type="truck_truck" depart="3109.21" departLane="best" departSpeed="max" from="-555600348" to="890146629"/>
    <trip id="truck91" type="truck_truck" depart="3143.76" departLane="best" departSpeed="max" from="323987231#0" to="1117713206"/>
    <trip id="truck92" type="truck_truck" depart="3178.31" departLane="best" departSpeed="max" from="-888879165#3" to="-1117713207#1"/>
    <trip id="truck93" type="truck_truck" depart="3212.85" departLane="best" departSpeed="max" from="323987231#0" to="888879165#0"/>
    <trip id="truck94" type="truck_truck" depart="3247.40" departLane="best" departSpeed="max" from="-555600352" to="-323987231#0"/>
    <trip id="truck95" type="truck_truck" depart="3281.95" departLane="best" departSpeed="max" from="-555600352" to="-739723515#1"/>
    <trip id="truck96" type="truck_truck" depart="3316.49" departLane="best" departSpeed="max" from="587800915#0" to="109505207#0"/>
    <trip id="truck97" type="truck_truck" depart="3351.04" departLane="best" from="109505204#1" to="977815031"/>
    <trip id="truck98" type="truck_truck" depart="3385.59" departLane="best" departSpeed="max" from="587800915#0" to="890146629"/>
    <trip id="truck99" type="truck_truck" depart="3420.14" departLane="best" departSpeed="max" from="367762382#0" to="-258656153#3"/>
    <trip id="truck100" type="truck_truck" depart="3454.68" departLane="best" from="587800915#3" to="555600352"/>
    <trip id="truck101" type="truck_truck" depart="3489.23" departLane="best" departSpeed="max" from="587800915#0" to="109505208#2"/>
    <trip id="truck102" type="truck_truck" depart="3523.78" departLane="best" departSpeed="max" from="1307885878" to="890146629"/>
    <trip id="truck103" type="truck_truck" depart="3558.32" departLane="best" departSpeed="max" from="-555600348" to="587800918#5"/>
    <trip id="truck104" type="truck_truck" depart="3592.87" departLane="best" departSpeed="max" from="615037319" to="890146631#2"/>
</routes>
