<?xml version="1.0" encoding="UTF-8"?>

<!-- generated on 2025-08-11 19:32:43.029836 by osmWebWizard.py UNKNOWN
<configuration>
    <net-file value="/home/sour/Sumo/2025-08-11-19-32-20/osm.net.xml.gz"/>
    <output-trip-file value="/home/sour/Sumo/2025-08-11-19-32-20/osm.truck.trips.xml"/>
    <route-file value="/home/sour/Sumo/2025-08-11-19-32-20/osm.truck.rou.xml"/>
    <prefix value="truck"/>
    <trip-attributes value="departLane=&quot;best&quot;"/>
    <fringe-start-attributes value="departSpeed=&quot;max&quot;"/>
    <vehicle-class value="truck"/>
    <fringe-factor value="5"/>
    <edge-permission value="truck"/>
    <via-edge-types value="highway.motorway,highway.motorway_link,highway.trunk_link,highway.primary_link,highway.secondary_link,highway.tertiary_link"/>
    <seed value="45"/>
    <min-distance value="600.0"/>
    <min-distance.fringe value="10.0"/>
    <remove-loops value="True"/>
    <insertion-density value="15.0"/>
</configuration>
-->

<routes xmlns:xsi="http://www.w3.org/2001/XMLSchema-instance" xsi:noNamespaceSchemaLocation="http://sumo.dlr.de/xsd/routes_file.xsd">
    <vType id="truck_truck" vClass="truck"/>
    <trip id="truck0" depart="0.00" from="-368286982" to="109505208#2" departLane="best" type="truck_truck" departSpeed="max"/>
    <trip id="truck1" depart="4.79" from="-227019974#0" to="-586661204" departLane="best" type="truck_truck"/>
    <trip id="truck2" depart="9.57" from="-226946947" to="-109505204#0" departLane="best" type="truck_truck" departSpeed="max"/>
    <trip id="truck3" depart="14.36" from="-444811602" to="-335575150" departLane="best" type="truck_truck" departSpeed="max"/>
    <trip id="truck4" depart="19.14" from="-555601438#1" to="368104071#2" departLane="best" type="truck_truck"/>
    <trip id="truck5" depart="23.93" from="-33836788#2" to="444826919#2" departLane="best" type="truck_truck"/>
    <trip id="truck6" depart="28.71" from="368096544#3" to="-367700883#2" departLane="best" type="truck_truck"/>
    <trip id="truck7" depart="33.50" from="586657908#0" to="368027034" departLane="best" type="truck_truck"/>
    <trip id="truck8" depart="38.29" from="-226946947" to="-620874944" departLane="best" type="truck_truck" departSpeed="max"/>
    <trip id="truck9" depart="43.07" from="367194255#0" to="620775234#2" departLane="best" type="truck_truck"/>
    <trip id="truck10" depart="47.86" from="-350146685#0" to="-368096545#2" departLane="best" type="truck_truck"/>
    <trip id="truck11" depart="52.64" from="376346459" to="628456652#1" departLane="best" type="truck_truck" departSpeed="max"/>
    <trip id="truck12" depart="57.43" from="-227100507#1" to="-227131720#1" departLane="best" type="truck_truck"/>
    <trip id="truck13" depart="62.21" from="368096547#2" to="-555600348#2" departLane="best" type="truck_truck"/>
    <trip id="truck14" depart="67.00" from="-620862578#0" to="615037318" departLane="best" type="truck_truck"/>
    <trip id="truck15" depart="71.79" from="368096546#0" to="350146688#0" departLane="best" type="truck_truck"/>
    <trip id="truck16" depart="76.57" from="462987552#1" to="34990514#2" departLane="best" type="truck_truck"/>
    <trip id="truck17" depart="81.36" from="329817169" to="-1305093056" departLane="best" type="truck_truck" departSpeed="max"/>
    <trip id="truck18" depart="86.14" from="-615037321" to="341456542" departLane="best" type="truck_truck"/>
    <trip id="truck19" depart="90.93" from="-103759573" to="1122773432#1" departLane="best" type="truck_truck" departSpeed="max"/>
    <trip id="truck20" depart="95.72" from="337132072#5" to="-444811599#0" departLane="best" type="truck_truck"/>
    <trip id="truck21" depart="100.50" from="-621949168#5" to="586657908#3" departLane="best" type="truck_truck"/>
    <trip id="truck22" depart="105.29" from="-341456542" to="1012133718#4" departLane="best" type="truck_truck"/>
    <trip id="truck23" depart="110.07" from="587800918#4" to="33768805#3" departLane="best" type="truck_truck"/>
    <trip id="truck24" depart="114.86" from="-109505207#2" to="587218913" departLane="best" type="truck_truck"/>
    <trip id="truck25" depart="119.64" from="341096510#0" to="1305093055#0" departLane="best" type="truck_truck" departSpeed="max"/>
    <trip id="truck26" depart="124.43" from="-116690596#1" to="620865939" departLane="best" type="truck_truck"/>
    <trip id="truck27" depart="129.22" from="-336988370#0" to="33973140#4" departLane="best" type="truck_truck"/>
    <trip id="truck28" depart="134.00" from="292749336#6" to="-620768869#0" departLane="best" type="truck_truck"/>
    <trip id="truck29" depart="138.79" from="-444811599#1" to="-888879165" departLane="best" type="truck_truck"/>
    <trip id="truck30" depart="143.57" from="-586659717" to="795671604#2" departLane="best" type="truck_truck"/>
    <trip id="truck31" depart="148.36" from="33768805#3" to="1305093054" departLane="best" type="truck_truck"/>
    <trip id="truck32" depart="153.14" from="341096510#0" to="1122773432#0" departLane="best" type="truck_truck" departSpeed="max"/>
    <trip id="truck33" depart="157.93" from="-341456563" to="-109505208#2" departLane="best" type="truck_truck" departSpeed="max"/>
    <trip id="truck34" depart="162.72" from="795671604#0" to="586659413" departLane="best" type="truck_truck"/>
    <trip id="truck35" depart="167.50" from="-227131720#1" to="33768805#2" departLane="best" type="truck_truck"/>
    <trip id="truck36" depart="172.29" from="-1324287528#3" to="-337132049" departLane="best" type="truck_truck"/>
    <trip id="truck37" depart="177.07" from="-620862578#4" to="337540073" departLane="best" type="truck_truck"/>
    <trip id="truck38" depart="181.86" from="586657908#1" to="-620862578#1" departLane="best" type="truck_truck"/>
    <trip id="truck39" depart="186.64" from="586595416" to="-620849594" departLane="best" type="truck_truck" departSpeed="max"/>
    <trip id="truck40" depart="191.43" from="367700934#1" to="615037321" departLane="best" type="truck_truck"/>
    <trip id="truck41" depart="196.22" from="-226946947" to="337132072#5" departLane="best" type="truck_truck" departSpeed="max"/>
    <trip id="truck42" depart="201.00" from="586595416" to="367700883#3" departLane="best" type="truck_truck" departSpeed="max"/>
    <trip id="truck43" depart="205.79" from="-368096545#2" to="-620768869#2" departLane="best" type="truck_truck"/>
    <trip id="truck44" depart="210.57" from="615037303" to="-367700934#3" departLane="best" type="truck_truck" departSpeed="max"/>
    <trip id="truck45" depart="215.36" from="1304287974" to="367762382#2" departLane="best" type="truck_truck"/>
    <trip id="truck46" depart="220.15" from="350146688#1" to="337132072#5" departLane="best" type="truck_truck"/>
    <trip id="truck47" depart="224.93" from="587218913" to="34990514#0" departLane="best" type="truck_truck"/>
    <trip id="truck48" depart="229.72" from="620772305#0" to="34990515#1" departLane="best" type="truck_truck"/>
    <trip id="truck49" depart="234.50" from="620768869#0" to="-368027023#1" departLane="best" type="truck_truck"/>
    <trip id="truck50" depart="239.29" from="-368096544#0" to="-116690593#1" departLane="best" type="truck_truck"/>
    <trip id="truck51" depart="244.07" from="33973140#1" to="555600352" departLane="best" type="truck_truck"/>
    <trip id="truck52" depart="248.86" from="586657041" to="-620849594" departLane="best" type="truck_truck" departSpeed="max"/>
    <trip id="truck53" depart="253.65" from="-117467837" to="368286982" departLane="best" type="truck_truck"/>
    <trip id="truck54" depart="258.43" from="898487494#1" to="103759573" departLane="best" type="truck_truck"/>
    <trip id="truck55" depart="263.22" from="615037322" to="227131720#2" departLane="best" type="truck_truck"/>
    <trip id="truck56" depart="268.00" from="-1324287528#1" to="-620768869#1" departLane="best" type="truck_truck"/>
    <trip id="truck57" depart="272.79" from="-368027027#1" to="-620874944" departLane="best" type="truck_truck"/>
    <trip id="truck58" depart="277.57" from="368096545#4" to="362714491" departLane="best" type="truck_truck"/>
    <trip id="truck59" depart="282.36" from="-620870374" to="336988370#0" departLane="best" type="truck_truck"/>
    <trip id="truck60" depart="287.15" from="-327075459#0" to="350146688#0" departLane="best" type="truck_truck"/>
    <trip id="truck61" depart="291.93" from="34990514#0" to="341456542" departLane="best" type="truck_truck"/>
    <trip id="truck62" depart="296.72" from="444826908#2" to="850677552" departLane="best" type="truck_truck"/>
    <trip id="truck63" depart="301.50" from="367762382#4" to="795671604#4" departLane="best" type="truck_truck"/>
    <trip id="truck64" depart="306.29" from="33973140#2" to="-368104091#6" departLane="best" type="truck_truck"/>
    <trip id="truck65" depart="311.07" from="586664247#0" to="359450383#1" departLane="best" type="truck_truck"/>
    <trip id="truck66" depart="315.86" from="227131720#0" to="-586664246#0" departLane="best" type="truck_truck" departSpeed="max"/>
    <trip id="truck67" depart="320.65" from="292749336#6" to="620775234#2" departLane="best" type="truck_truck"/>
    <trip id="truck68" depart="325.43" from="-620775234#2" to="-109505208#0" departLane="best" type="truck_truck" departSpeed="max"/>
    <trip id="truck69" depart="330.22" from="-337540069#1" to="226946947" departLane="best" type="truck_truck"/>
    <trip id="truck70" depart="335.00" from="586657042#0" to="-116690593#1" departLane="best" type="truck_truck"/>
    <trip id="truck71" depart="339.79" from="-621949168#2" to="-586661204" departLane="best" type="truck_truck"/>
    <trip id="truck72" depart="344.57" from="-850677551#3" to="341456563" departLane="best" type="truck_truck"/>
    <trip id="truck73" depart="349.36" from="116690593#0" to="-368104091#2" departLane="best" type="truck_truck" departSpeed="max"/>
    <trip id="truck74" depart="354.15" from="587800915#0" to="555600348#0" departLane="best" type="truck_truck"/>
    <trip id="truck75" depart="358.93" from="-227131720#2" to="620862578#0" departLane="best" type="truck_truck"/>
    <trip id="truck76" depart="363.72" from="341096510#0" to="1012133718#4" departLane="best" type="truck_truck" departSpeed="max"/>
    <trip id="truck77" depart="368.50" from="368104091#5" to="586661204" departLane="best" type="truck_truck"/>
    <trip id="truck78" depart="373.29" from="1304287974" to="587800918#0" departLane="best" type="truck_truck"/>
    <trip id="truck79" depart="378.08" from="1305093055#0" to="341456566" departLane="best" type="truck_truck"/>
    <trip id="truck80" depart="382.86" from="362871972#3" to="-621949168#1" departLane="best" type="truck_truck"/>
    <trip id="truck81" depart="387.65" from="-620862578#6" to="587800918#2" departLane="best" type="truck_truck" departSpeed="max"/>
    <trip id="truck82" depart="392.43" from="337132072#5" to="-109505208#2" departLane="best" type="truck_truck"/>
    <trip id="truck83" depart="397.22" from="329817169" to="368104071#4" departLane="best" type="truck_truck" departSpeed="max"/>
    <trip id="truck84" depart="402.00" from="116690593#0" to="367762382#4" departLane="best" type="truck_truck" departSpeed="max"/>
    <trip id="truck85" depart="406.79" from="-615037318" to="-620768869#3" departLane="best" type="truck_truck"/>
    <trip id="truck86" depart="411.58" from="-587793740" to="-444811599#0" departLane="best" type="truck_truck" departSpeed="max"/>
    <trip id="truck87" depart="416.36" from="620869256" to="615037318" departLane="best" type="truck_truck" departSpeed="max"/>
    <trip id="truck88" depart="421.15" from="-586664246#3" to="33973140#3" departLane="best" type="truck_truck"/>
    <trip id="truck89" depart="425.93" from="-628456652#1" to="-33973140#3" departLane="best" type="truck_truck" departSpeed="max"/>
    <trip id="truck90" depart="430.72" from="888879165" to="620772305#1" departLane="best" type="truck_truck"/>
    <trip id="truck91" depart="435.50" from="-444811602" to="-327075459#0" departLane="best" type="truck_truck" departSpeed="max"/>
    <trip id="truck92" depart="440.29" from="-620768869#1" to="368209083" departLane="best" type="truck_truck"/>
    <trip id="truck93" depart="445.08" from="620862578#3" to="1012133718#0" departLane="best" type="truck_truck"/>
    <trip id="truck94" depart="449.86" from="-861783801" to="33836788#2" departLane="best" type="truck_truck"/>
    <trip id="truck95" depart="454.65" from="586657042#2" to="367707574#2" departLane="best" type="truck_truck"/>
    <trip id="truck96" depart="459.43" from="888879165" to="-337132072#7" departLane="best" type="truck_truck"/>
    <trip id="truck97" depart="464.22" from="-227131720#1" to="-335575150" departLane="best" type="truck_truck"/>
    <trip id="truck98" depart="469.00" from="620862578#5" to="-444811599#2" departLane="best" type="truck_truck"/>
    <trip id="truck99" depart="473.79" from="-226946947" to="-337540069#1" departLane="best" type="truck_truck" departSpeed="max"/>
    <trip id="truck100" depart="478.58" from="-103765643#3" to="1408953124#2" departLane="best" type="truck_truck"/>
    <trip id="truck101" depart="483.36" from="337540075" to="-444476598" departLane="best" type="truck_truck" departSpeed="max"/>
    <trip id="truck102" depart="488.15" from="-103765643#0" to="-116690480#0" departLane="best" type="truck_truck"/>
    <trip id="truck103" depart="492.93" from="359450383#1" to="-1012133718#0" departLane="best" type="truck_truck"/>
    <trip id="truck104" depart="497.72" from="-368096546#1" to="1012133718#2" departLane="best" type="truck_truck"/>
    <trip id="truck105" depart="502.50" from="620849594" to="116690479#0" departLane="best" type="truck_truck" departSpeed="max"/>
    <trip id="truck106" depart="507.29" from="33768805#1" to="-1304287973" departLane="best" type="truck_truck"/>
    <trip id="truck107" depart="512.08" from="-367194255#2" to="555601518" departLane="best" type="truck_truck"/>
    <trip id="truck108" depart="516.86" from="1012133719" to="1122773432#0" departLane="best" type="truck_truck" departSpeed="max"/>
    <trip id="truck109" depart="521.65" from="586595416" to="34990515#2" departLane="best" type="truck_truck" departSpeed="max"/>
    <trip id="truck110" depart="526.43" from="-34990516#1" to="103765643#0" departLane="best" type="truck_truck"/>
    <trip id="truck111" depart="531.22" from="620874944" to="-350146688#2" departLane="best" type="truck_truck" departSpeed="max"/>
    <trip id="truck112" depart="536.01" from="-620862578#6" to="-350146685#1" departLane="best" type="truck_truck" departSpeed="max"/>
    <trip id="truck113" depart="540.79" from="-444811602" to="-367762378" departLane="best" type="truck_truck" departSpeed="max"/>
    <trip id="truck114" depart="545.58" from="33973140#1" to="368104091#0" departLane="best" type="truck_truck"/>
    <trip id="truck115" depart="550.36" from="587800915#5" to="-337132072#3" departLane="best" type="truck_truck"/>
    <trip id="truck116" depart="555.15" from="898487494#1" to="367700883#0" departLane="best" type="truck_truck"/>
    <trip id="truck117" depart="559.93" from="-368286982" to="362871972#1" departLane="best" type="truck_truck" departSpeed="max"/>
    <trip id="truck118" depart="564.72" from="337132049" to="-615037323" departLane="best" type="truck_truck" departSpeed="max"/>
    <trip id="truck119" depart="569.51" from="-368286982" to="-227131720#0" departLane="best" type="truck_truck" departSpeed="max"/>
    <trip id="truck120" depart="574.29" from="-367762382#4" to="586664247#1" departLane="best" type="truck_truck"/>
    <trip id="truck121" depart="579.08" from="-620768869#4" to="34990515#2" departLane="best" type="truck_truck"/>
    <trip id="truck122" depart="583.86" from="-795671604#3" to="-367762382#2" departLane="best" type="truck_truck"/>
    <trip id="truck123" depart="588.65" from="-795671604#1" to="-350146688#1" departLane="best" type="truck_truck"/>
    <trip id="truck124" depart="593.43" from="-33768805#4" to="444826919#2" departLane="best" type="truck_truck"/>
    <trip id="truck125" depart="598.22" from="-555601438#1" to="367194255#3" departLane="best" type="truck_truck"/>
    <trip id="truck126" depart="603.01" from="117467837" to="-109505207#3" departLane="best" type="truck_truck"/>
    <trip id="truck127" depart="607.79" from="-587793740" to="586664246#3" departLane="best" type="truck_truck" departSpeed="max"/>
    <trip id="truck128" depart="612.58" from="-587793740" to="116690596#1" departLane="best" type="truck_truck" departSpeed="max"/>
    <trip id="truck129" depart="617.36" from="116690479#1" to="368027027#2" departLane="best" type="truck_truck"/>
    <trip id="truck130" depart="622.15" from="587800915#2" to="226946947" departLane="best" type="truck_truck"/>
    <trip id="truck131" depart="626.93" from="586664246#0" to="-33768805#0" departLane="best" type="truck_truck"/>
    <trip id="truck132" depart="631.72" from="-34990514#4" to="341456566" departLane="best" type="truck_truck" departSpeed="max"/>
    <trip id="truck133" depart="636.51" from="337132049" to="109505204#0" departLane="best" type="truck_truck" departSpeed="max"/>
    <trip id="truck134" depart="641.29" from="-795671604#4" to="628456652#1" departLane="best" type="truck_truck"/>
    <trip id="truck135" depart="646.08" from="-620775234#2" to="-1012133718#3" departLane="best" type="truck_truck" departSpeed="max"/>
    <trip id="truck136" depart="650.86" from="-888879165" to="226946947" departLane="best" type="truck_truck"/>
    <trip id="truck137" depart="655.65" from="368096546#1" to="341456566" departLane="best" type="truck_truck"/>
    <trip id="truck138" depart="660.44" from="615037303" to="-368096544#0" departLane="best" type="truck_truck" departSpeed="max"/>
    <trip id="truck139" depart="665.22" from="615037303" to="462987551" departLane="best" type="truck_truck" departSpeed="max"/>
    <trip id="truck140" depart="670.01" from="-795671604#3" to="620862578#6" departLane="best" type="truck_truck"/>
    <trip id="truck141" depart="674.79" from="587800918#4" to="795671604#0" departLane="best" type="truck_truck"/>
    <trip id="truck142" depart="679.58" from="-628456652#0" to="-620869256" departLane="best" type="truck_truck"/>
    <trip id="truck143" depart="684.36" from="795671604#4" to="-116690479#0" departLane="best" type="truck_truck"/>
    <trip id="truck144" depart="689.15" from="620869256" to="555601518" departLane="best" type="truck_truck" departSpeed="max"/>
    <trip id="truck145" depart="693.94" from="-367194255#4" to="341456563" departLane="best" type="truck_truck"/>
    <trip id="truck146" depart="698.72" from="-620775234#2" to="368104071#4" departLane="best" type="truck_truck" departSpeed="max"/>
    <trip id="truck147" depart="703.51" from="620772305#1" to="368104091#3" departLane="best" type="truck_truck"/>
    <trip id="truck148" depart="708.29" from="586657041" to="-444476598" departLane="best" type="truck_truck" departSpeed="max"/>
    <trip id="truck149" depart="713.08" from="620862578#3" to="-367700934#1" departLane="best" type="truck_truck"/>
    <trip id="truck150" depart="717.86" from="367762382#2" to="367194255#1" departLane="best" type="truck_truck"/>
    <trip id="truck151" depart="722.65" from="-615037320#2" to="620862578#6" departLane="best" type="truck_truck"/>
    <trip id="truck152" depart="727.44" from="-586659413" to="341456566" departLane="best" type="truck_truck" departSpeed="max"/>
    <trip id="truck153" depart="732.22" from="-337132072#7" to="367762382#2" departLane="best" type="truck_truck"/>
    <trip id="truck154" depart="737.01" from="116690479#3" to="-323987231#0" departLane="best" type="truck_truck"/>
    <trip id="truck155" depart="741.79" from="586657041" to="226946947" departLane="best" type="truck_truck" departSpeed="max"/>
    <trip id="truck156" depart="746.58" from="33973140#4" to="-368027050" departLane="best" type="truck_truck"/>
    <trip id="truck157" depart="751.36" from="350146688#1" to="-586659718" departLane="best" type="truck_truck"/>
    <trip id="truck158" depart="756.15" from="-116690480#2" to="-620862578#1" departLane="best" type="truck_truck"/>
    <trip id="truck159" depart="760.94" from="368104071#4" to="226946949" departLane="best" type="truck_truck"/>
    <trip id="truck160" depart="765.72" from="362871972#3" to="-33973140#3" departLane="best" type="truck_truck"/>
    <trip id="truck161" depart="770.51" from="-227019974#1" to="-341096510#0" departLane="best" type="truck_truck" departSpeed="max"/>
    <trip id="truck162" depart="775.29" from="1012133719" to="-555600352" departLane="best" type="truck_truck" departSpeed="max"/>
    <trip id="truck163" depart="780.08" from="586657042#3" to="227100505#0" departLane="best" type="truck_truck"/>
    <trip id="truck164" depart="784.86" from="109505207#0" to="-620862578#2" departLane="best" type="truck_truck"/>
    <trip id="truck165" depart="789.65" from="-34990515#1" to="-34990516#1" departLane="best" type="truck_truck"/>
    <trip id="truck166" depart="794.44" from="-368286982" to="-109505204#2" departLane="best" type="truck_truck" departSpeed="max"/>
    <trip id="truck167" depart="799.22" from="-34990514#4" to="337132072#3" departLane="best" type="truck_truck" departSpeed="max"/>
    <trip id="truck168" depart="804.01" from="116690593#0" to="1122773432#1" departLane="best" type="truck_truck" departSpeed="max"/>
    <trip id="truck169" depart="808.79" from="1408953126#0" to="323987231#1" departLane="best" type="truck_truck" departSpeed="max"/>
    <trip id="truck170" depart="813.58" from="368190051" to="-444826908#2" departLane="best" type="truck_truck"/>
    <trip id="truck171" depart="818.37" from="462986979" to="1408953126#1" departLane="best" type="truck_truck"/>
    <trip id="truck172" depart="823.15" from="-367700883#3" to="615037324" departLane="best" type="truck_truck" departSpeed="max"/>
    <trip id="truck173" depart="827.94" from="-116690593#1" to="586659413" departLane="best" type="truck_truck"/>
    <trip id="truck174" depart="832.72" from="368096546#0" to="586664246#4" departLane="best" type="truck_truck"/>
    <trip id="truck175" depart="837.51" from="-444811602" to="-555600351#0" departLane="best" type="truck_truck" departSpeed="max"/>
    <trip id="truck176" depart="842.29" from="1408953126#0" to="586657908#2" departLane="best" type="truck_truck" departSpeed="max"/>
    <trip id="truck177" depart="847.08" from="-620772305#1" to="898487494#1" departLane="best" type="truck_truck"/>
    <trip id="truck178" depart="851.87" from="615037318" to="368096546#0" departLane="best" type="truck_truck"/>
    <trip id="truck179" depart="856.65" from="-587793740" to="337540073" departLane="best" type="truck_truck" departSpeed="max"/>
    <trip id="truck180" depart="861.44" from="-368027034" to="850677551#0" departLane="best" type="truck_truck"/>
    <trip id="truck181" depart="866.22" from="337132049" to="-116690596#1" departLane="best" type="truck_truck" departSpeed="max"/>
    <trip id="truck182" depart="871.01" from="1309954088" to="-336988370#1" departLane="best" type="truck_truck" departSpeed="max"/>
    <trip id="truck183" depart="875.79" from="-586659413" to="359450383#1" departLane="best" type="truck_truck" departSpeed="max"/>
    <trip id="truck184" depart="880.58" from="-227019974#1" to="586657042#2" departLane="best" type="truck_truck" departSpeed="max"/>
    <trip id="truck185" depart="885.37" from="359450383#1" to="362871972#2" departLane="best" type="truck_truck"/>
    <trip id="truck186" depart="890.15" from="-586659413" to="-329817169" departLane="best" type="truck_truck" departSpeed="max"/>
    <trip id="truck187" depart="894.94" from="620869256" to="350146685#1" departLane="best" type="truck_truck" departSpeed="max"/>
    <trip id="truck188" depart="899.72" from="368096546#1" to="103759573" departLane="best" type="truck_truck"/>
    <trip id="truck189" depart="904.51" from="-368096544#3" to="226946947" departLane="best" type="truck_truck"/>
    <trip id="truck190" depart="909.29" from="-1304287973" to="341456566" departLane="best" type="truck_truck"/>
    <trip id="truck191" depart="914.08" from="350146688#5" to="-33768805#1" departLane="best" type="truck_truck"/>
    <trip id="truck192" depart="918.87" from="34990516#1" to="212414966" departLane="best" type="truck_truck"/>
    <trip id="truck193" depart="923.65" from="444826908#2" to="1122773432#1" departLane="best" type="truck_truck"/>
    <trip id="truck194" depart="928.44" from="-888879166" to="-977815031" departLane="best" type="truck_truck"/>
    <trip id="truck195" depart="933.22" from="615037303" to="-327075459#1" departLane="best" type="truck_truck" departSpeed="max"/>
    <trip id="truck196" depart="938.01" from="335575150" to="367762382#3" departLane="best" type="truck_truck" departSpeed="max"/>
    <trip id="truck197" depart="942.79" from="-1324287528#2" to="368096547#1" departLane="best" type="truck_truck"/>
    <trip id="truck198" depart="947.58" from="620869256" to="-109505208#0" departLane="best" type="truck_truck" departSpeed="max"/>
    <trip id="truck199" depart="952.37" from="-368096545#2" to="586657042#0" departLane="best" type="truck_truck"/>
    <trip id="truck200" depart="957.15" from="444826908#0" to="337132072#3" departLane="best" type="truck_truck"/>
    <trip id="truck201" depart="961.94" from="620862578#3" to="292749336#4" departLane="best" type="truck_truck"/>
    <trip id="truck202" depart="966.72" from="-368096544#1" to="444826919#2" departLane="best" type="truck_truck"/>
    <trip id="truck203" depart="971.51" from="-444826919#1" to="-367762382#2" departLane="best" type="truck_truck"/>
    <trip id="truck204" depart="976.30" from="-367700883#3" to="444826908#1" departLane="best" type="truck_truck" departSpeed="max"/>
    <trip id="truck205" depart="981.08" from="620869256" to="-337540075" departLane="best" type="truck_truck" departSpeed="max"/>
    <trip id="truck206" depart="985.87" from="109505208#3" to="-1408953124#1" departLane="best" type="truck_truck"/>
    <trip id="truck207" depart="990.65" from="-116690479#3" to="-739723515#0" departLane="best" type="truck_truck"/>
    <trip id="truck208" depart="995.44" from="-1117713207#1" to="-367707574#0" departLane="best" type="truck_truck"/>
    <trip id="truck209" depart="1000.22" from="795671604#6" to="-586659717" departLane="best" type="truck_truck"/>
    <trip id="truck210" depart="1005.01" from="367194255#4" to="-620869256" departLane="best" type="truck_truck"/>
    <trip id="truck211" depart="1009.80" from="-586659718" to="-620874944" departLane="best" type="truck_truck"/>
    <trip id="truck212" depart="1014.58" from="620849594" to="-227131720#0" departLane="best" type="truck_truck" departSpeed="max"/>
    <trip id="truck213" depart="1019.37" from="586595416" to="368027027#1" departLane="best" type="truck_truck" departSpeed="max"/>
    <trip id="truck214" depart="1024.15" from="586657041" to="444826908#2" departLane="best" type="truck_truck" departSpeed="max"/>
    <trip id="truck215" depart="1028.94" from="586664246#4" to="-227131720#0" departLane="best" type="truck_truck"/>
    <trip id="truck216" depart="1033.72" from="-587793740" to="33768805#5" departLane="best" type="truck_truck" departSpeed="max"/>
    <trip id="truck217" depart="1038.51" from="-615037321" to="-350146688#3" departLane="best" type="truck_truck"/>
    <trip id="truck218" depart="1043.30" from="-368286982" to="444826908#0" departLane="best" type="truck_truck" departSpeed="max"/>
    <trip id="truck219" depart="1048.08" from="337132072#2" to="795671604#2" departLane="best" type="truck_truck"/>
    <trip id="truck220" depart="1052.87" from="323987231#0" to="-117467837" departLane="best" type="truck_truck" departSpeed="max"/>
    <trip id="truck221" depart="1057.65" from="-336988370#0" to="444811602" departLane="best" type="truck_truck"/>
    <trip id="truck222" depart="1062.44" from="850677551#1" to="620768866#1" departLane="best" type="truck_truck"/>
    <trip id="truck223" depart="1067.22" from="-103759573" to="555601438#2" departLane="best" type="truck_truck" departSpeed="max"/>
    <trip id="truck224" depart="1072.01" from="620869256" to="-367762378" departLane="best" type="truck_truck" departSpeed="max"/>
    <trip id="truck225" depart="1076.80" from="-368096547#0" to="-350146688#3" departLane="best" type="truck_truck"/>
    <trip id="truck226" depart="1081.58" from="-621949168#1" to="587800918#1" departLane="best" type="truck_truck"/>
    <trip id="truck227" depart="1086.37" from="555601438#0" to="-335575150" departLane="best" type="truck_truck"/>
    <trip id="truck228" depart="1091.15" from="-337540069#1" to="444826919#2" departLane="best" type="truck_truck"/>
    <trip id="truck229" depart="1095.94" from="-462987552#0" to="116690596#2" departLane="best" type="truck_truck"/>
    <trip id="truck230" depart="1100.73" from="586657908#0" to="850677551#0" departLane="best" type="truck_truck"/>
    <trip id="truck231" depart="1105.51" from="-621949168#2" to="337540073" departLane="best" type="truck_truck"/>
    <trip id="truck232" depart="1110.30" from="-586664246#4" to="-367194255#0" departLane="best" type="truck_truck"/>
    <trip id="truck233" depart="1115.08" from="620869256" to="-350146685#1" departLane="best" type="truck_truck" departSpeed="max"/>
    <trip id="truck234" depart="1119.87" from="-620775234#1" to="-368204852" departLane="best" type="truck_truck"/>
    <trip id="truck235" depart="1124.65" from="444476598" to="350146685#1" departLane="best" type="truck_truck" departSpeed="max"/>
    <trip id="truck236" depart="1129.44" from="-620768869#4" to="-368096545#0" departLane="best" type="truck_truck"/>
    <trip id="truck237" depart="1134.23" from="368190050#1" to="-329817169" departLane="best" type="truck_truck"/>
    <trip id="truck238" depart="1139.01" from="615037320#1" to="-337132049" departLane="best" type="truck_truck"/>
    <trip id="truck239" depart="1143.80" from="620862578#5" to="-109505207#2" departLane="best" type="truck_truck"/>