<?xml version="1.0" encoding="UTF-8"?>

<!-- generated on 2025-11-04 14:17:01.231655 by osmWebWizard.py UNKNOWN
<configuration>
    <net-file value="/home/sour/Sumo/2025-11-04-13-16-48/2025-11-04-14-16-43/osm.net.xml.gz"/>
    <output-trip-file value="/home/sour/Sumo/2025-11-04-13-16-48/2025-11-04-14-16-43/osm.bus.trips.xml"/>
    <route-file value="/home/sour/Sumo/2025-11-04-13-16-48/2025-11-04-14-16-43/osm.bus.rou.xml"/>
    <prefix value="bus"/>
    <trip-attributes value="departLane=&quot;best&quot;"/>
    <fringe-start-attributes value="departSpeed=&quot;max&quot;"/>
    <vehicle-class value="bus"/>
    <fringe-factor value="5"/>
    <edge-permission value="bus"/>
    <via-edge-types value="highway.motorway,highway.motorway_link,highway.trunk_link,highway.primary_link,highway.secondary_link,highway.tertiary_link"/>
    <min-distance value="600.0"/>
    <min-distance.fringe value="10.0"/>
    <remove-loops value="True"/>
    <insertion-density value="4.0"/>
</configuration>
-->

<routes xmlns:xsi="http://www.w3.org/2001/XMLSchema-instance" xsi:noNamespaceSchemaLocation="http://sumo.dlr.de/xsd/routes_file.xsd">
    <vType id="bus_bus" vClass="bus"/>
    <trip id="bus0" depart="0.00" from="33836187#1" to="-117467837" departLane="best" type="bus_bus"/>
    <trip id="bus1" depart="6.48" from="-569991741#0" to="-368096547#1" departLane="best" type="bus_bus"/>
    <trip id="bus2" depart="12.96" from="444805127#0" to="350146688#0" departLane="best" type="bus_bus" departSpeed="max"/>
    <trip id="bus3" depart="19.44" from="-368104091#0" to="204122962" departLane="best" type="bus_bus"/>
    <trip id="bus4" depart="25.92" from="-116690480#2" to="-350146688#3" departLane="best" type="bus_bus"/>
    <trip id="bus5" depart="32.40" from="340934820#2" to="232778101#3" departLane="best" type="bus_bus"/>
    <trip id="bus6" depart="38.88" from="-368104091#4" to="258656153#0" departLane="best" type="bus_bus"/>
    <trip id="bus7" depart="45.36" from="586323859" to="-109505207#1" departLane="best" type="bus_bus" departSpeed="max"/>
    <trip id="bus8" depart="51.84" from="-587218913" to="-33197215#4" departLane="best" type="bus_bus"/>
    <trip id="bus9" depart="58.32" from="586319747#2" to="368204852" departLane="best" type="bus_bus"/>
    <trip id="bus10" depart="64.81" from="-630358350#6" to="253581894#0" departLane="best" type="bus_bus"/>
    <trip id="bus11" depart="71.29" from="586373149#4" to="312614638#2" departLane="best" type="bus_bus"/>
    <trip id="bus12" depart="77.77" from="586594759#1" to="258245655#5" departLane="best" type="bus_bus"/>
    <trip id="bus13" depart="84.25" from="368104091#2" to="-230183341#1" departLane="best" type="bus_bus"/>
    <trip id="bus14" depart="90.73" from="-426788207" to="-568955932" departLane="best" type="bus_bus"/>
    <trip id="bus15" depart="97.21" from="-253581894#1" to="-388949442#0" departLane="best" type="bus_bus"/>
    <trip id="bus16" depart="103.69" from="-258245655#10" to="-555600351#0" departLane="best" type="bus_bus" departSpeed="max"/>
    <trip id="bus17" depart="110.17" from="-556909867#0" to="628812311#6" departLane="best" type="bus_bus"/>
    <trip id="bus18" depart="116.65" from="-33836187#6" to="368190051" departLane="best" type="bus_bus"/>
    <trip id="bus19" depart="123.13" from="898487479#1" to="337540062#0" departLane="best" type="bus_bus"/>
    <trip id="bus20" depart="129.61" from="258245655#4" to="359450386#0" departLane="best" type="bus_bus"/>
    <trip id="bus21" depart="136.09" from="-444475429#1" to="-154091487" departLane="best" type="bus_bus"/>
    <trip id="bus22" depart="142.57" from="-586373149#9" to="-444806104#0" departLane="best" type="bus_bus"/>
    <trip id="bus23" depart="149.05" from="-368096547#1" to="629067609#2" departLane="best" type="bus_bus"/>
    <trip id="bus24" depart="155.53" from="350146685#1" to="-628504017#1" departLane="best" type="bus_bus"/>
    <trip id="bus25" depart="162.01" from="615037306" to="109505208#2" departLane="best" type="bus_bus"/>
    <trip id="bus26" depart="168.49" from="-556908155" to="-444477814#0" departLane="best" type="bus_bus" departSpeed="max"/>
    <trip id="bus27" depart="174.97" from="258325389#0" to="-444805127#3" departLane="best" type="bus_bus"/>
    <trip id="bus28" depart="181.45" from="282840327#0" to="615037271#2" departLane="best" type="bus_bus"/>
    <trip id="bus29" depart="187.94" from="-850677551#3" to="-368096545#0" departLane="best" type="bus_bus"/>
    <trip id="bus30" depart="194.42" from="-258226029#2" to="-230183355" departLane="best" type="bus_bus"/>
    <trip id="bus31" depart="200.90" from="-258325389#2" to="33197215#3" departLane="best" type="bus_bus"/>
    <trip id="bus32" depart="207.38" from="579925088" to="-675198390#1" departLane="best" type="bus_bus" departSpeed="max"/>
    <trip id="bus33" depart="213.86" from="-230244705#2" to="-615037268#0" departLane="best" type="bus_bus"/>
    <trip id="bus34" depart="220.34" from="898487494#0" to="230244705#2" departLane="best" type="bus_bus"/>
    <trip id="bus35" depart="226.82" from="-109505207#0" to="368104071#1" departLane="best" type="bus_bus"/>
    <trip id="bus36" depart="233.30" from="364177895#0" to="230283484#0" departLane="best" type="bus_bus"/>
    <trip id="bus37" depart="239.78" from="-556909867#0" to="337540063#0" departLane="best" type="bus_bus"/>
    <trip id="bus38" depart="246.26" from="-258325393#0" to="-888879166" departLane="best" type="bus_bus"/>
    <trip id="bus39" depart="252.74" from="1312476769#0" to="674857908#0" departLane="best" type="bus_bus"/>
    <trip id="bus40" depart="259.22" from="586659718" to="-444806099#1" departLane="best" type="bus_bus"/>
    <trip id="bus41" depart="265.70" from="230244705#1" to="-337540076#3" departLane="best" type="bus_bus"/>
    <trip id="bus42" depart="272.18" from="615037289#4" to="586664246#0" departLane="best" type="bus_bus"/>
    <trip id="bus43" depart="278.66" from="555600351#0" to="232725195#0" departLane="best" type="bus_bus" departSpeed="max"/>
    <trip id="bus44" depart="285.14" from="569991741#3" to="230244710#0" departLane="best" type="bus_bus"/>
    <trip id="bus45" depart="291.62" from="-1009076938" to="-586323859" departLane="best" type="bus_bus"/>
    <trip id="bus46" depart="298.10" from="-1118659370#2" to="628504015" departLane="best" type="bus_bus"/>
    <trip id="bus47" depart="304.58" from="586664246#4" to="586373149#6" departLane="best" type="bus_bus"/>
    <trip id="bus48" depart="311.07" from="-586339378#3" to="-230218185" departLane="best" type="bus_bus"/>
    <trip id="bus49" depart="317.55" from="586664246#2" to="630358350#6" departLane="best" type="bus_bus"/>
    <trip id="bus50" depart="324.03" from="-258136097#1" to="1309954073" departLane="best" type="bus_bus"/>
    <trip id="bus51" depart="330.51" from="-230283483#5" to="515235347" departLane="best" type="bus_bus"/>
    <trip id="bus52" depart="336.99" from="555601438#1" to="-260062647#1" departLane="best" type="bus_bus"/>
    <trip id="bus53" depart="343.47" from="230183328#2" to="241697931#1" departLane="best" type="bus_bus"/>
    <trip id="bus54" depart="349.95" from="-556908155" to="586664246#4" departLane="best" type="bus_bus" departSpeed="max"/>
    <trip id="bus55" depart="356.43" from="109565734" to="-367762382#1" departLane="best" type="bus_bus" departSpeed="max"/>
    <trip id="bus56" depart="362.91" from="258136097#2" to="388949441#0" departLane="best" type="bus_bus"/>
    <trip id="bus57" depart="369.39" from="898487493#1" to="337540074#0" departLane="best" type="bus_bus"/>
    <trip id="bus58" depart="375.87" from="1122773432#1" to="230183370#0" departLane="best" type="bus_bus"/>
    <trip id="bus59" depart="382.35" from="-260062644#1" to="-368104071#2" departLane="best" type="bus_bus"/>
    <trip id="bus60" depart="388.83" from="-586664246#1" to="258325416#0" departLane="best" type="bus_bus"/>
    <trip id="bus61" depart="395.31" from="-444475429#3" to="-368096545#2" departLane="best" type="bus_bus"/>
    <trip id="bus62" depart="401.79" from="-230283483#8" to="336422160#2" departLane="best" type="bus_bus"/>
    <trip id="bus63" depart="408.27" from="-444475429#1" to="615037289#1" departLane="best" type="bus_bus"/>
    <trip id="bus64" depart="414.75" from="586593626" to="-230283483#1" departLane="best" type="bus_bus"/>
    <trip id="bus65" depart="421.23" from="-368104071#1" to="-282840323#4" departLane="best" type="bus_bus"/>
    <trip id="bus66" depart="427.71" from="227131720#1" to="568955931#2" departLane="best" type="bus_bus"/>
    <trip id="bus67" depart="434.19" from="586323555" to="-340934816#2" departLane="best" type="bus_bus"/>
    <trip id="bus68" depart="440.68" from="-258226055#3" to="-850677551#1" departLane="best" type="bus_bus"/>
    <trip id="bus69" depart="447.16" from="109565734" to="1118659366" departLane="best" type="bus_bus" departSpeed="max"/>
    <trip id="bus70" depart="453.64" from="444761097#0" to="341096505" departLane="best" type="bus_bus"/>
    <trip id="bus71" depart="460.12" from="890146627" to="-258226050#0" departLane="best" type="bus_bus"/>
    <trip id="bus72" depart="466.60" from="586594759#1" to="-444477816#0" departLane="best" type="bus_bus"/>
    <trip id="bus73" depart="473.08" from="-350146688#0" to="1049377330#1" departLane="best" type="bus_bus"/>
    <trip id="bus74" depart="479.56" from="-444806104#1" to="628456652#1" departLane="best" type="bus_bus" departSpeed="max"/>
    <trip id="bus75" depart="486.04" from="116690480#0" to="586657906#1" departLane="best" type="bus_bus" departSpeed="max"/>
    <trip id="bus76" depart="492.52" from="258226053#1" to="-230218149#0" departLane="best" type="bus_bus"/>
    <trip id="bus77" depart="499.00" from="977815033" to="586556424#2" departLane="best" type="bus_bus"/>
    <trip id="bus78" depart="505.48" from="230218149#0" to="-368027050" departLane="best" type="bus_bus" departSpeed="max"/>
    <trip id="bus79" depart="511.96" from="-630358350#6" to="890146629#1" departLane="best" type="bus_bus"/>
    <trip id="bus80" depart="518.44" from="-556908155" to="568955931#2" departLane="best" type="bus_bus" departSpeed="max"/>
    <trip id="bus81" depart="524.92" from="1314170404" to="-704235784#1" departLane="best" type="bus_bus"/>
    <trip id="bus82" depart="531.40" from="674857908#1" to="898487493#2" departLane="best" type="bus_bus"/>
    <trip id="bus83" depart="537.88" from="258245655#2" to="368096547#3" departLane="best" type="bus_bus"/>
    <trip id="bus84" depart="544.36" from="-337012258#1" to="-579914857#0" departLane="best" type="bus_bus"/>
    <trip id="bus85" depart="550.84" from="258226028#1" to="444805121#1" departLane="best" type="bus_bus"/>
    <trip id="bus86" depart="557.32" from="230244707" to="586592651" departLane="best" type="bus_bus" departSpeed="max"/>
    <trip id="bus87" depart="563.81" from="-337540064#0" to="675198390#1" departLane="best" type="bus_bus"/>
    <trip id="bus88" depart="570.29" from="-253581894#2" to="-340934813#0" departLane="best" type="bus_bus"/>
    <trip id="bus89" depart="576.77" from="292749336#0" to="34990516#2" departLane="best" type="bus_bus"/>
    <trip id="bus90" depart="583.25" from="-444761094#0" to="-258656153#1" departLane="best" type="bus_bus"/>
    <trip id="bus91" depart="589.73" from="614635712" to="-444477814#0" departLane="best" type="bus_bus"/>
    <trip id="bus92" depart="596.21" from="109505207#3" to="258325392#1" departLane="best" type="bus_bus"/>
    <trip id="bus93" depart="602.69" from="232778099#2" to="628812311#3" departLane="best" type="bus_bus"/>
    <trip id="bus94" depart="609.17" from="-444761097#1" to="-628504017#2" departLane="best" type="bus_bus" departSpeed="max"/>
    <trip id="bus95" depart="615.65" from="362714494#0" to="-579914861" departLane="best" type="bus_bus"/>
    <trip id="bus96" depart="622.13" from="-230283484#2" to="109505208#1" departLane="best" type="bus_bus"/>
    <trip id="bus97" depart="628.61" from="977815031" to="898487494#0" departLane="best" type="bus_bus"/>
    <trip id="bus98" depart="635.09" from="-230283484#3" to="-367762382#3" departLane="best" type="bus_bus"/>
    <trip id="bus99" depart="641.57" from="-556908155" to="628812311#11" departLane="best" type="bus_bus" departSpeed="max"/>
    <trip id="bus100" depart="648.05" from="-628812311#1" to="-336422160#1" departLane="best" type="bus_bus"/>
    <trip id="bus101" depart="654.53" from="586556424#0" to="364177895#1" departLane="best" type="bus_bus"/>
    <trip id="bus102" depart="661.01" from="33197215#2" to="890146631#1" departLane="best" type="bus_bus"/>
    <trip id="bus103" depart="667.49" from="586330327#2" to="-579914857#1" departLane="best" type="bus_bus"/>
    <trip id="bus104" depart="673.97" from="359450386#0" to="629067608#2" departLane="best" type="bus_bus"/>
    <trip id="bus105" depart="680.45" from="-282891298#1" to="-258325393#0" departLane="best" type="bus_bus"/>
    <trip id="bus106" depart="686.94" from="-258325387#0" to="253581894#2" departLane="best" type="bus_bus"/>
    <trip id="bus107" depart="693.42" from="-568973576" to="282841463#0" departLane="best" type="bus_bus" departSpeed="max"/>
    <trip id="bus108" depart="699.90" from="337540075" to="-444806099#2" departLane="best" type="bus_bus" departSpeed="max"/>
    <trip id="bus109" depart="706.38" from="230218154#0" to="615037289#1" departLane="best" type="bus_bus"/>
    <trip id="bus110" depart="712.86" from="586568472" to="-258226028#1" departLane="best" type="bus_bus" departSpeed="max"/>
    <trip id="bus111" depart="719.34" from="109565734" to="-555600351#0" departLane="best" type="bus_bus" departSpeed="max"/>
    <trip id="bus112" depart="725.82" from="-1009076942" to="555600348#0" departLane="best" type="bus_bus" departSpeed="max"/>
    <trip id="bus113" depart="732.30" from="444806099#1" to="253581892" departLane="best" type="bus_bus"/>
    <trip id="bus114" depart="738.78" from="109565742" to="-109505208#2" departLane="best" type="bus_bus" departSpeed="max"/>
    <trip id="bus115" depart="745.26" from="-232778103#1" to="614635704" departLane="best" type="bus_bus"/>
    <trip id="bus116" depart="751.74" from="615037271#2" to="232778103#0" departLane="best" type="bus_bus"/>
    <trip id="bus117" depart="758.22" from="586556424#2" to="258325389#1" departLane="best" type="bus_bus"/>
    <trip id="bus118" depart="764.70" from="-586339379" to="615037274" departLane="best" type="bus_bus"/>
    <trip id="bus119" depart="771.18" from="586313403#8" to="586657043#1" departLane="best" type="bus_bus"/>
    <trip id="bus120" depart="777.66" from="-444806104#1" to="-258226055#2" departLane="best" type="bus_bus" departSpeed="max"/>
    <trip id="bus121" depart="784.14" from="579777168#1" to="614635712" departLane="best" type="bus_bus"/>
    <trip id="bus122" depart="790.62" from="-898487481#0" to="312614641" departLane="best" type="bus_bus"/>
    <trip id="bus123" depart="797.10" from="586657042#0" to="886398465#1" departLane="best" type="bus_bus"/>
    <trip id="bus124" depart="803.58" from="586323859" to="611491296#0" departLane="best" type="bus_bus" departSpeed="max"/>
    <trip id="bus125" depart="810.07" from="-116690479#2" to="444475429#3" departLane="best" type="bus_bus"/>
    <trip id="bus126" depart="816.55" from="586319513" to="586657908#3" departLane="best" type="bus_bus" departSpeed="max"/>
    <trip id="bus127" depart="823.03" from="586323859" to="-444806103" departLane="best" type="bus_bus" departSpeed="max"/>
    <trip id="bus128" depart="829.51" from="-368190050#0" to="586329728" departLane="best" type="bus_bus"/>
    <trip id="bus129" depart="835.99" from="586313403#7" to="-368104091#4" departLane="best" type="bus_bus"/>
    <trip id="bus130" depart="842.47" from="-116690479#0" to="-340934820#4" departLane="best" type="bus_bus"/>
    <trip id="bus131" depart="848.95" from="-586595145" to="586657908#3" departLane="best" type="bus_bus"/>
    <trip id="bus132" depart="855.43" from="739723515#0" to="-555600351#1" departLane="best" type="bus_bus"/>
    <trip id="bus133" depart="861.91" from="886398489" to="230283483#8" departLane="best" type="bus_bus"/>
    <trip id="bus134" depart="868.39" from="629067608#1" to="-258325393#0" departLane="best" type="bus_bus"/>
    <trip id="bus135" depart="874.87" from="850677551#3" to="-337540076#3" departLane="best" type="bus_bus"/>
    <trip id="bus136" depart="881.35" from="704235785#0" to="-444806103" departLane="best" type="bus_bus"/>
    <trip id="bus137" depart="887.83" from="-258325389#0" to="-888879166" departLane="best" type="bus_bus"/>
    <trip id="bus138" depart="894.31" from="444761094#1" to="-586319362#0" departLane="best" type="bus_bus"/>
    <trip id="bus139" depart="900.79" from="-631920552#3" to="258245655#3" departLane="best" type="bus_bus"/>
    <trip id="bus140" depart="907.27" from="-515235348#0" to="367762382#2" departLane="best" type="bus_bus"/>
    <trip id="bus141" depart="913.75" from="-1009076942" to="628456652#1" departLane="best" type="bus_bus" departSpeed="max"/>
    <trip id="bus142" depart="920.23" from="258136097#0" to="368096547#3" departLane="best" type="bus_bus"/>
    <trip id="bus143" depart="926.71" from="-628456652#1" to="-230283481#1" departLane="best" type="bus_bus" departSpeed="max"/>
    <trip id="bus144" depart="933.20" from="359450386#1" to="-586330327#0" departLane="best" type="bus_bus"/>
    <trip id="bus145" depart="939.68" from="444477330" to="-579914861" departLane="best" type="bus_bus" departSpeed="max"/>
    <trip id="bus146" depart="946.16" from="-586368634#0" to="-630358350#6" departLane="best" type="bus_bus"/>
    <trip id="bus147" depart="952.64" from="-282840325#0" to="-644261214" departLane="best" type="bus_bus"/>
    <trip id="bus148" depart="959.12" from="615037271#0" to="292764136" departLane="best" type="bus_bus"/>
    <trip id="bus149" depart="965.60" from="-586326406#3" to="241697929" departLane="best" type="bus_bus"/>
    <trip id="bus150" depart="972.08" from="-1009076936" to="-568955931#0" departLane="best" type="bus_bus"/>
    <trip id="bus151" depart="978.56" from="1117713203#2" to="258325387#0" departLane="best" type="bus_bus"/>
    <trip id="bus152" depart="985.04" from="350146685#0" to="1117713209#0" departLane="best" type="bus_bus"/>
    <trip id="bus153" depart="991.52" from="116690480#0" to="-367762382#4" departLane="best" type="bus_bus" departSpeed="max"/>
    <trip id="bus154" depart="998.00" from="227131720#2" to="615037282" departLane="best" type="bus_bus"/>
    <trip id="bus155" depart="1004.48" from="586313403#8" to="-337540064#1" departLane="best" type="bus_bus"/>
    <trip id="bus156" depart="1010.96" from="-258136096#2" to="230183356#0" departLane="best" type="bus_bus"/>
    <trip id="bus157" depart="1017.44" from="362714495#1" to="-368104071#2" departLane="best" type="bus_bus"/>
    <trip id="bus158" depart="1023.92" from="-444805125#0" to="1122773432#0" departLane="best" type="bus_bus"/>
    <trip id="bus159" depart="1030.40" from="-359450380#0" to="362871968#0" departLane="best" type="bus_bus"/>
    <trip id="bus160" depart="1036.88" from="230218179#1" to="-444477813" departLane="best" type="bus_bus"/>
    <trip id="bus161" depart="1043.36" from="515235348#2" to="516511594#3" departLane="best" type="bus_bus"/>
    <trip id="bus162" depart="1049.84" from="-258245655#9" to="-704235786#1" departLane="best" type="bus_bus"/>
    <trip id="bus163" depart="1056.33" from="232725196" to="-230218149#0" departLane="best" type="bus_bus" departSpeed="max"/>
    <trip id="bus164" depart="1062.81" from="-444806099#2" to="586574694#1" departLane="best" type="bus_bus"/>
    <trip id="bus165" depart="1069.29" from="1324287528#1" to="586313403#6" departLane="best" type="bus_bus"/>
    <trip id="bus166" depart="1075.77" from="362714489" to="890146632" departLane="best" type="bus_bus" departSpeed="max"/>
    <trip id="bus167" depart="1082.25" from="615037250#0" to="292749336#2" departLane="best" type="bus_bus"/>
    <trip id="bus168" depart="1088.73" from="444477330" to="204122962" departLane="best" type="bus_bus" departSpeed="max"/>
    <trip id="bus169" depart="1095.21" from="586373149#6" to="241697929" departLane="best" type="bus_bus"/>
    <trip id="bus170" depart="1101.69" from="615037264" to="444761097#1" departLane="best" type="bus_bus"/>
    <trip id="bus171" depart="1108.17" from="230183328#1" to="-444805127#0" departLane="best" type="bus_bus"/>
    <trip id="bus172" depart="1114.65" from="555601438#1" to="230218171#1" departLane="best" type="bus_bus"/>
    <trip id="bus173" depart="1121.13" from="337540064#1" to="-515235348#4" departLane="best" type="bus_bus"/>
    <trip id="bus174" depart="1127.61" from="-568955931#2" to="-586319746#1" departLane="best" type="bus_bus" departSpeed="max"/>
    <trip id="bus175" depart="1134.09" from="258226027#0" to="-282840329" departLane="best" type="bus_bus"/>
    <trip id="bus176" depart="1140.57" from="368104091#6" to="-230244705#2" departLane="best" type="bus_bus"/>
    <trip id="bus177" depart="1147.05" from="-898487481#2" to="232778099#2" departLane="best" type="bus_bus"/>
    <trip id="bus178" depart="1153.53" from="109505208#0" to="615037289#0" departLane="best" type="bus_bus"/>
    <trip id="bus179" depart="1160.01" from="282840326" to="362714497#2" departLane="best" type="bus_bus"/>
    <trip id="bus180" depart="1166.49" from="586575935" to="515235349#3" departLane="best" type="bus_bus" departSpeed="max"/>
    <trip id="bus181" depart="1172.97" from="-630358621#4" to="-109505207#0" departLane="best" type="bus_bus"/>
    <trip id="bus182" depart="1179.45" from="-615037273" to="444805127#2" departLane="best" type="bus_bus"/>
    <trip id="bus183" depart="1185.94" from="586574697" to="644261214" departLane="best" type="bus_bus"/>
    <trip id="bus184" depart="1192.42" from="109505207#3" to="444805121#0" departLane="best" type="bus_bus"/>
    <trip id="bus185" depart="1198.90" from="258226050#0" to="282840327#2" departLane="best" type="bus_bus" departSpeed="max"/>
    <trip id="bus186" depart="1205.38" from="-368104091#4" to="-368096545#0" departLane="best" type="bus_bus"/>
    <trip id="bus187" depart="1211.86" from="1121692938#0" to="-1324287528#0" departLane="best" type="bus_bus"/>
    <trip id="bus188" depart="1218.34" from="-888879165#2" to="-337002317#0" departLane="best" type="bus_bus"/>
    <trip id="bus189" depart="1224.82" from="212414966" to="-260062647#0" departLane="best" type="bus_bus" departSpeed="max"/>
    <trip id="bus190" depart="1231.30" from="-704235788" to="258226029#2" departLane="best" type="bus_bus"/>
    <trip id="bus191" depart="1237.78" from="-116690480#3" to="337540065" departLane="best" type="bus_bus"/>
    <trip id="bus192" depart="1244.26" from="-292749268#0" to="1117713203#0" departLane="best" type="bus_bus"/>
    <trip id="bus193" depart="1250.74" from="-230183341#1" to="-615037251" departLane="best" type="bus_bus"/>
    <trip id="bus194" depart="1257.22" from="-368096547#3" to="-586326406#3" departLane="best" type="bus_bus" departSpeed="max"/>
    <trip id="bus195" depart="1263.70" from="555600351#0" to="-615037251" departLane="best" type="bus_bus" departSpeed="max"/>
    <trip id="bus196" depart="1270.18" from="515235348#4" to="586373149#6" departLane="best" type="bus_bus"/>
    <trip id="bus197" depart="1276.66" from="-515235345#0" to="-253581892" departLane="best" type="bus_bus"/>
    <trip id="bus198" depart="1283.14" from="631863278#1" to="-350146688#5" departLane="best" type="bus_bus"/>
    <trip id="bus199" depart="1289.62" from="-1121692938#0" to="-33197140#2" departLane="best" type="bus_bus"/>
    <trip id="bus200" depart="1296.10" from="-282840323#6" to="340934820#4" departLane="best" type="bus_bus"/>
    <trip id="bus201" depart="1302.58" from="258325392#2" to="-368096545#0" departLane="best" type="bus_bus"/>
    <trip id="bus202" depart="1309.07" from="368096546#0" to="515714958#0" departLane="best" type="bus_bus"/>
    <trip id="bus203" depart="1315.55" from="-33836187#0" to="282841465#1" departLane="best" type="bus_bus"/>
    <trip id="bus204" depart="1322.03" from="515235345#1" to="-258325392#2" departLane="best" type="bus_bus"/>
    <trip id="bus205" depart="1328.51" from="586339378#2" to="704235788" departLane="best" type="bus_bus"/>
    <trip id="bus206" depart="1334.99" from="-258325387#2" to="-1194712200" departLane="best" type="bus_bus"/>
    <trip id="bus207" depart="1341.47" from="-586373149#2" to="350146688#1" departLane="best" type="bus_bus"/>
    <trip id="bus208" depart="1347.95" from="367762382#3" to="33197215#2" departLane="best" type="bus_bus"/>
    <trip id="bus209" depart="1354.43" from="-258245655#10" to="555600351#1" departLane="best" type="bus_bus" departSpeed="max"/>
    <trip id="bus210" depart="1360.91" from="586573066#0" to="282840323#7" departLane="best" type="bus_bus"/>
    <trip id="bus211" depart="1367.39" from="-260062644#1" to="890146627" departLane="best" type="bus_bus"/>
    <trip id="bus212" depart="1373.87" from="579914855#0" to="-586568472" departLane="best" type="bus_bus" departSpeed="max"/>
    <trip id="bus213" depart="1380.35" from="109565746#1" to="-586661204" departLane="best" type="bus_bus"/>
    <trip id="bus214" depart="1386.83" from="-258245655#7" to="675198390#1" departLane="best" type="bus_bus"/>
    <trip id="bus215" depart="1393.31" from="337540075" to="586373149#0" departLane="best" type="bus_bus" departSpeed="max"/>
    <trip id="bus216" depart="1399.79" from="368190050#1" to="-898487480#1" departLane="best" type="bus_bus"/>
    <trip id="bus217" depart="1406.27" from="444805124#0" to="704235789" departLane="best" type="bus_bus"/>
    <trip id="bus218" depart="1412.75" from="-568955931#2" to="586319363#2" departLane="best" type="bus_bus" departSpeed="max"/>
    <trip id="bus219" depart="1419.23" from="258136096#2" to="1305093055#0" departLane="best" type="bus_bus"/>
    <trip id="bus220" depart="1425.71" from="1118659370#2" to="388949441#2" departLane="best" type="bus_bus"/>
    <trip id="bus221" depart="1432.20" from="-556909867#3" to="586592650#0" departLane="best" type="bus_bus"/>
    <trip id="bus222" depart="1438.68" from="586373149#6" to="-258136096#0" departLane="best" type="bus_bus"/>
    <trip id="bus223" depart="1445.16" from="587800915#1" to="-444477813" departLane="best" type="bus_bus"/>
    <trip id="bus224" depart="1451.64" from="204122958#3" to="292749336#0" departLane="best" type="bus_bus"/>
    <trip id="bus225" depart="1458.12" from="-630358350#6" to="-1314170404" departLane="best" type="bus_bus"/>
    <trip id="bus226" depart="1464.60" from="-368096547#3" to="579914859" departLane="best" type="bus_bus" departSpeed="max"/>
    <trip id="bus227" depart="1471.08" from="-611487894" to="587800918#5" departLane="best" type="bus_bus"/>
    <trip id="bus228" depart="1477.56" from="368104071#0" to="-555600351#0" departLane="best" type="bus_bus"/>
    <trip id="bus229" depart="1484.04" from="-109505204#0" to="630358621#3" departLane="best" type="bus_bus"/>
    <trip id="bus230" depart="1490.52" from="-258136097#1" to="368104071#0" departLane="best" type="bus_bus"/>
    <trip id="bus231" depart="1497.00" from="230218154#0" to="444806104#1" departLane="best" type="bus_bus"/>
    <trip id="bus232" depart="1503.48" from="367762382#3" to="337540068#2" departLane="best" type="bus_bus"/>
    <trip id="bus233" depart="1509.96" from="230218169" to="579777169" departLane="best" type="bus_bus" departSpeed="max"/>
    <trip id="bus234" depart="1516.44" from="-258226050#1" to="-368096546#0" departLane="best" type="bus_bus"/>
    <trip id="bus235" depart="1522.92" from="368027055" to="-586313403#2" departLane="best" type="bus_bus"/>
    <trip id="bus236" depart="1529.40" from="282840323#4" to="1121692938#2" departLane="best" type="bus_bus"/>
    <trip id="bus237" depart="1535.88" from="253581891" to="-704235787" departLane="best" type="bus_bus"/>
    <trip id="bus238" depart="1542.36" from="444806104#0" to="-586330327#1" departLane="best" type="bus_bus" departSpeed="max"/>
    <trip id="bus239" depart="1548.84" from="368104071#3" to="-515235346#0" departLane="best" type="bus_bus"/>
    <trip id="bus240" depart="1555.33" from="-444806104#1" to="-258656153#2" departLane="best" type="bus_bus" departSpeed="max"/>
    <trip id="bus241" depart="1561.81" from="258136093#1" to="515235348#2" departLane="best" type="bus_bus"/>
    <trip id="bus242" depart="1568.29" from="-340934820#8" to="-368096544#3" departLane="best" type="bus_bus" departSpeed="max"/>
    <trip id="bus243" depart="1574.77" from="230183369#1" to="368104091#0" departLane="best" type="bus_bus"/>
    <trip id="bus244" depart="1581.25" from="880026449" to="230244698#3" departLane="best" type="bus_bus"/>
    <trip id="bus245" depart="1587.73" from="-579914859" to="-258226053#1" departLane="best" type="bus_bus" departSpeed="max"/>
    <trip id="bus246" depart="1594.21" from="-350146691#1" to="-368104091#4" departLane="best" type="bus_bus"/>
    <trip id="bus247" depart="1600.69" from="-340934815#1" to="-1118659370#1" departLane="best" type="bus_bus" departSpeed="max"/>
    <trip id="bus248" depart="1607.17" from="253581894#4" to="-515235348#3" departLane="best" type="bus_bus"/>
    <trip id="bus249" depart="1613.65" from="861783801" to="253581894#2" departLane="best" type="bus_bus"/>
    <trip id="bus250" depart="1620.13" from="368096545#2" to="-260062647#0" departLane="best" type="bus_bus"/>
    <trip id="bus251" depart="1626.61" from="586657908#2" to="258245655#10" departLane="best" type="bus_bus"/>
    <trip id="bus252" depart="1633.09" from="212722206#3" to="1009076941" departLane="best" type="bus_bus"/>
    <trip id="bus253" depart="1639.57" from="-340934820#6" to="-230218154#0" departLane="best" type="bus_bus"/>
    <trip id="bus254" depart="1646.05" from="630357163" to="116690479#1" departLane="best" type="bus_bus"/>
    <trip id="bus255" depart="1652.53" from="586367049#0" to="-628812311#2" departLane="best" type="bus_bus"/>