<?xml version="1.0" encoding="UTF-8"?>

<!-- generated on 2025-11-04 15:58:03 by Eclipse SUMO netedit Version 1.24.0
-->

<routes xmlns:xsi="http://www.w3.org/2001/XMLSchema-instance" xsi:noNamespaceSchemaLocation="http://sumo.dlr.de/xsd/routes_file.xsd">
    <!-- VTypes -->
    <vType id="veh_passenger" vClass="passenger"/>
    <!-- Vehicles, persons and containers (sorted by depart) -->
    <trip id="veh0" type="veh_passenger" depart="0.00" departLane="best" departSpeed="max" from="1307885878" to="362714491"/>
    <trip id="veh1" type="veh_passenger" depart="23.03" departLane="best" departSpeed="max" from="615037319" to="-350146691#1"/>
    <trip id="veh2" type="veh_passenger" depart="46.06" departLane="best" departSpeed="max" from="-888879165#3" to="-109505208#1"/>
    <trip id="veh3" type="veh_passenger" depart="69.09" departLane="best" departSpeed="max" from="1305093055#0" to="1305093055#1"/>
    <trip id="veh4" type="veh_passenger" depart="92.12" departLane="best" departSpeed="max" from="515970250" to="1117713206"/>
    <trip id="veh5" type="veh_passenger" depart="115.16" departLane="best" from="-341096510#1" to="888879165#0"/>
    <trip id="veh6" type="veh_passenger" depart="138.19" departLane="best" from="-341096510#1" to="-323987231#0"/>
    <trip id="veh7" type="veh_passenger" depart="161.22" departLane="best" from="-109505208#4" to="1305093055#1"/>
    <trip id="veh8" type="veh_passenger" depart="184.25" departLane="best" from="258656153#1" to="890146631#2"/>
    <trip id="veh9" type="veh_passenger" depart="207.28" departLane="best" departSpeed="max" from="367762382#0" to="587800918#5"/>
    <trip id="veh10" type="veh_passenger" depart="230.31" departLane="best" departSpeed="max" from="1307885878" to="-109505208#4"/>
    <trip id="veh11" type="veh_passenger" depart="253.34" departLane="best" departSpeed="max" from="367762382#0" to="1117713206"/>
    <trip id="veh12" type="veh_passenger" depart="276.37" departLane="best" departSpeed="max" from="587800915#0" to="555600348"/>
    <trip id="veh13" type="veh_passenger" depart="299.41" departLane="best" from="350146691#0" to="362714491"/>
    <trip id="veh14" type="veh_passenger" depart="322.44" departLane="best" departSpeed="max" from="-888879165#3" to="341096510#1"/>
    <trip id="veh15" type="veh_passenger" depart="345.47" departLane="best" from="586664246#0" to="586657042#0"/>
    <trip id="veh16" type="veh_passenger" depart="368.50" departLane="best" departSpeed="max" from="1305093055#0" to="587800918#5"/>
    <trip id="veh17" type="veh_passenger" depart="391.53" departLane="best" departSpeed="max" from="587800915#0" to="-1117713207#1"/>
    <trip id="veh18" type="veh_passenger" depart="414.56" departLane="best" departSpeed="max" from="-555600352" to="-739723515#1"/>
    <trip id="veh19" type="veh_passenger" depart="437.59" departLane="best" departSpeed="max" from="367762382#0" to="362714491"/>
    <trip id="veh20" type="veh_passenger" depart="460.62" departLane="best" from="-586664246#4" to="-350146685#1"/>
    <trip id="veh21" type="veh_passenger" depart="483.66" departLane="best" departSpeed="max" from="1305093055#0" to="888879165#0"/>
    <trip id="veh22" type="veh_passenger" depart="506.69" departLane="best" from="362871972#0" to="-258656153#2"/>
    <trip id="veh23" type="veh_passenger" depart="529.72" departLane="best" departSpeed="max" from="1307885878" to="-258656153#0"/>
    <trip id="veh24" type="veh_passenger" depart="552.75" departLane="best" departSpeed="max" from="587800915#0" to="555600348"/>
    <trip id="veh25" type="veh_passenger" depart="575.78" departLane="best" departSpeed="max" from="587800915#0" to="888879165#0"/>
    <trip id="veh26" type="veh_passenger" depart="598.81" departLane="best" departSpeed="max" from="323987231#0" to="890146629"/>
    <trip id="veh27" type="veh_passenger" depart="621.84" departLane="best" from="350146691#1" to="362714491"/>
    <trip id="veh28" type="veh_passenger" depart="644.87" departLane="best" departSpeed="max" from="323987231#0" to="1117713206"/>
    <trip id="veh29" type="veh_passenger" depart="667.91" departLane="best" from="109505207#0" to="1305093055#1"/>
    <trip id="veh30" type="veh_passenger" depart="690.94" departLane="best" departSpeed="max" from="350146688#0" to="898487483#1"/>
    <trip id="veh31" type="veh_passenger" depart="713.97" departLane="best" from="-341096510#1" to="109505204#0"/>
    <trip id="veh32" type="veh_passenger" depart="737.00" departLane="best" from="890146631#1" to="555600352"/>
    <trip id="veh33" type="veh_passenger" depart="760.03" departLane="best" departSpeed="max" from="367762382#0" to="890146631#1"/>
    <trip id="veh34" type="veh_passenger" depart="783.06" departLane="best" from="350146685#0" to="888879165#0"/>
    <trip id="veh35" type="veh_passenger" depart="806.09" departLane="best" from="-888879166" to="586657042#1"/>
    <trip id="veh36" type="veh_passenger" depart="829.12" departLane="best" departSpeed="max" from="350146688#0" to="-323987231#0"/>
    <trip id="veh37" type="veh_passenger" depart="852.15" departLane="best" from="350146691#1" to="362714491"/>
    <trip id="veh38" type="veh_passenger" depart="875.19" departLane="best" departSpeed="max" from="323987231#0" to="890146631#1"/>
    <trip id="veh39" type="veh_passenger" depart="898.22" departLane="best" from="890146631#0" to="586657042#0"/>
    <trip id="veh40" type="veh_passenger" depart="921.25" departLane="best" from="586664246#2" to="1305093055#1"/>
    <trip id="veh41" type="veh_passenger" depart="944.28" departLane="best" from="898487482" to="586657908#2"/>
    <trip id="veh42" type="veh_passenger" depart="967.31" departLane="best" departSpeed="max" from="-888879165#3" to="586657042#1"/>
    <trip id="veh43" type="veh_passenger" depart="990.34" departLane="best" from="586657042#1" to="-109505204#0"/>
    <trip id="veh44" type="veh_passenger" depart="1013.37" departLane="best" from="109505208#2" to="362714491"/>
    <trip id="veh45" type="veh_passenger" depart="1036.40" departLane="best" departSpeed="max" from="-888879165#3" to="-350146688#1"/>
    <trip id="veh46" type="veh_passenger" depart="1059.44" departLane="best" departSpeed="max" from="-555600348" to="1305093055#1"/>
    <trip id="veh47" type="veh_passenger" depart="1082.47" departLane="best" departSpeed="max" from="323987231#0" to="555600348"/>
    <trip id="veh48" type="veh_passenger" depart="1105.50" departLane="best" departSpeed="max" from="515970250" to="586657042#0"/>
    <trip id="veh49" type="veh_passenger" depart="1128.53" departLane="best" from="1117713207#0" to="362871972#1"/>
    <trip id="veh50" type="veh_passenger" depart="1151.56" departLane="best" departSpeed="max" from="587800915#0" to="-109505207#2"/>
    <trip id="veh51" type="veh_passenger" depart="1174.59" departLane="best" from="586664246#0" to="-350146688#1"/>
    <trip id="veh52" type="veh_passenger" depart="1197.62" departLane="best" from="-109505207#2" to="-323987231#0"/>
    <trip id="veh53" type="veh_passenger" depart="1220.65" departLane="best" departSpeed="max" from="350146688#0" to="888879165#0"/>
    <trip id="veh54" type="veh_passenger" depart="1243.69" departLane="best" departSpeed="max" from="615037319" to="-350146688#5"/>
    <trip id="veh55" type="veh_passenger" depart="1266.72" departLane="best" departSpeed="max" from="1307885878" to="898487483#1"/>
    <trip id="veh56" type="veh_passenger" depart="1289.75" departLane="best" departSpeed="max" from="615037319" to="888879165#0"/>
    <trip id="veh57" type="veh_passenger" depart="1312.78" departLane="best" from="-898487483#0" to="109505207#3"/>
    <trip id="veh58" type="veh_passenger" depart="1335.81" departLane="best" departSpeed="max" from="1307885878" to="587800918#5"/>
    <trip id="veh59" type="veh_passenger" depart="1358.84" departLane="best" departSpeed="max" from="367762382#0" to="-350146691#0"/>
    <trip id="veh60" type="veh_passenger" depart="1381.87" departLane="best" departSpeed="max" from="-555600352" to="258656153#3"/>
    <trip id="veh61" type="veh_passenger" depart="1404.90" departLane="best" departSpeed="max" from="615037319" to="350146688#2"/>
    <trip id="veh62" type="veh_passenger" depart="1427.94" departLane="best" departSpeed="max" from="615037319" to="350146691#1"/>
    <trip id="veh63" type="veh_passenger" depart="1450.97" departLane="best" departSpeed="max" from="1305093055#0" to="341096510#1"/>
    <trip id="veh64" type="veh_passenger" depart="1474.00" departLane="best" from="-586664246#2" to="888879165#0"/>
    <trip id="veh65" type="veh_passenger" depart="1497.03" departLane="best" from="258656153#3" to="555600348"/>
    <trip id="veh66" type="veh_passenger" depart="1520.06" departLane="best" departSpeed="max" from="-888879165#3" to="253653636"/>
    <trip id="veh67" type="veh_passenger" depart="1543.09" departLane="best" from="-109505204#0" to="587800918#5"/>
    <trip id="veh68" type="veh_passenger" depart="1566.12" departLane="best" from="364177895#0" to="555600352"/>
    <trip id="veh69" type="veh_passenger" depart="1589.15" departLane="best" from="1117713207#0" to="586657042#3"/>
    <trip id="veh70" type="veh_passenger" depart="1612.19" departLane="best" departSpeed="max" from="323987231#0" to="-109505204#0"/>
    <trip id="veh71" type="veh_passenger" depart="1635.22" departLane="best" from="350146691#0" to="1117713206"/>
    <trip id="veh72" type="veh_passenger" depart="1658.25" departLane="best" departSpeed="max" from="367762382#0" to="586664246#0"/>
    <trip id="veh73" type="veh_passenger" depart="1681.28" departLane="best" from="890146631#1" to="-350146691#0"/>
    <trip id="veh74" type="veh_passenger" depart="1704.31" departLane="best" from="586664246#2" to="350146688#5"/>
    <trip id="veh75" type="veh_passenger" depart="1727.34" departLane="best" from="890146631#1" to="-323987231#0"/>
    <trip id="veh76" type="veh_passenger" depart="1750.37" departLane="best" departSpeed="max" from="1305093055#0" to="-350146688#5"/>
    <trip id="veh77" type="veh_passenger" depart="1773.40" departLane="best" from="350146685#0" to="1117713207#0"/>
    <trip id="veh78" type="veh_passenger" depart="1796.43" departLane="best" from="898487482" to="-258656153#0"/>
    <trip id="veh79" type="veh_passenger" depart="1819.47" departLane="best" departSpeed="max" from="350146688#0" to="888879165#0"/>
    <trip id="veh80" type="veh_passenger" depart="1842.50" departLane="best" departSpeed="max" from="323987231#0" to="898487483#1"/>
    <trip id="veh81" type="veh_passenger" depart="1865.53" departLane="best" departSpeed="max" from="1305093055#0" to="-739723515#1"/>
    <trip id="veh82" type="veh_passenger" depart="1888.56" departLane="best" from="364177895#0" to="-350146685#1"/>
    <trip id="veh83" type="veh_passenger" depart="1911.59" departLane="best" departSpeed="max" from="1307885878" to="586657042#1"/>
    <trip id="veh84" type="veh_passenger" depart="1934.62" departLane="best" departSpeed="max" from="1305093055#0" to="898487482"/>
    <trip id="veh85" type="veh_passenger" depart="1957.65" departLane="best" departSpeed="max" from="-888879165#3" to="109505204#0"/>
    <trip id="veh86" type="veh_passenger" depart="1980.68" departLane="best" departSpeed="max" from="587800915#0" to="362714491"/>
    <trip id="veh87" type="veh_passenger" depart="2003.72" departLane="best" from="-350146688#3" to="362714491"/>
    <trip id="veh88" type="veh_passenger" depart="2026.75" departLane="best" departSpeed="max" from="515970250" to="-109505207#4"/>
    <trip id="veh89" type="veh_passenger" depart="2049.78" departLane="best" departSpeed="max" from="515970250" to="1305093055#1"/>
    <trip id="veh90" type="veh_passenger" depart="2072.81" departLane="best" from="-586664246#2" to="362871972#0"/>
    <trip id="veh91" type="veh_passenger" depart="2095.84" departLane="best" departSpeed="max" from="350146688#0" to="362871972#1"/>
    <trip id="veh92" type="veh_passenger" depart="2118.87" departLane="best" departSpeed="max" from="367762382#0" to="898487493#2"/>
    <trip id="veh93" type="veh_passenger" depart="2141.90" departLane="best" departSpeed="max" from="615037319" to="341096510#1"/>
    <trip id="veh94" type="veh_passenger" depart="2164.93" departLane="best" departSpeed="max" from="323987231#0" to="-888879166"/>
    <trip id="veh95" type="veh_passenger" depart="2187.97" departLane="best" from="890146632" to="555600352"/>
    <trip id="veh96" type="veh_passenger" depart="2211.00" departLane="best" departSpeed="max" from="1305093055#0" to="109505207#3"/>
    <trip id="veh97" type="veh_passenger" depart="2234.03" departLane="best" from="-109505207#4" to="-323987231#0"/>
    <trip id="veh98" type="veh_passenger" depart="2257.06" departLane="best" from="898487483#1" to="362714491"/>
    <trip id="veh99" type="veh_passenger" depart="2280.09" departLane="best" departSpeed="max" from="587800915#0" to="586657042#3"/>
    <trip id="veh100" type="veh_passenger" depart="2303.12" departLane="best" departSpeed="max" from="615037319" to="350146688#6"/>
    <trip id="veh101" type="veh_passenger" depart="2326.15" departLane="best" departSpeed="max" from="-555600348" to="890146631#1"/>
    <trip id="veh102" type="veh_passenger" depart="2349.18" departLane="best" departSpeed="max" from="350146688#0" to="1305093055#1"/>
    <trip id="veh103" type="veh_passenger" depart="2372.22" departLane="best" departSpeed="max" from="323987231#0" to="1305093055#1"/>
    <trip id="veh104" type="veh_passenger" depart="2395.25" departLane="best" from="-350146685#1" to="-1117713207#1"/>
    <trip id="veh105" type="veh_passenger" depart="2418.28" departLane="best" departSpeed="max" from="1307885878" to="555600348"/>
    <trip id="veh106" type="veh_passenger" depart="2441.31" departLane="best" from="364177895#0" to="890146631#2"/>
    <trip id="veh107" type="veh_passenger" depart="2464.34" departLane="best" departSpeed="max" from="1305093055#0" to="898487493#1"/>
    <trip id="veh108" type="veh_passenger" depart="2487.37" departLane="best" from="-109505204#2" to="-350146688#5"/>
    <trip id="veh109" type="veh_passenger" depart="2510.40" departLane="best" departSpeed="max" from="323987231#0" to="555600352"/>
    <trip id="veh110" type="veh_passenger" depart="2533.43" departLane="best" departSpeed="max" from="1307885878" to="587800918#1"/>
    <trip id="veh111" type="veh_passenger" depart="2556.46" departLane="best" departSpeed="max" from="350146688#0" to="-109505204#0"/>
    <trip id="veh112" type="veh_passenger" depart="2579.50" departLane="best" departSpeed="max" from="367762382#0" to="350146685#0"/>
    <trip id="veh113" type="veh_passenger" depart="2602.53" departLane="best" departSpeed="max" from="-555600352" to="258656153#0"/>
    <trip id="veh114" type="veh_passenger" depart="2625.56" departLane="best" departSpeed="max" from="1307885878" to="253653636"/>
    <trip id="veh115" type="veh_passenger" depart="2648.59" departLane="best" from="-350146688#3" to="1117713206"/>
    <trip id="veh116" type="veh_passenger" depart="2671.62" departLane="best" departSpeed="max" from="1307885878" to="586657908#3"/>
    <trip id="veh117" type="veh_passenger" depart="2694.65" departLane="best" departSpeed="max" from="515970250" to="-586664246#2"/>
    <trip id="veh118" type="veh_passenger" depart="2717.68" departLane="best" departSpeed="max" from="515970250" to="1305093055#1"/>
    <trip id="veh119" type="veh_passenger" depart="2740.71" departLane="best" departSpeed="max" from="587800915#0" to="-109505207#4"/>
    <trip id="veh120" type="veh_passenger" depart="2763.75" departLane="best" from="109505208#2" to="362714491"/>
    <trip id="veh121" type="veh_passenger" depart="2786.78" departLane="best" from="109505204#1" to="1305093055#1"/>
    <trip id="veh122" type="veh_passenger" depart="2809.81" departLane="best" from="350146688#5" to="-888879166"/>
    <trip id="veh123" type="veh_passenger" depart="2832.84" departLane="best" departSpeed="max" from="-555600352" to="341096510#1"/>
    <trip id="veh124" type="veh_passenger" depart="2855.87" departLane="best" departSpeed="max" from="-555600348" to="898487482"/>
    <trip id="veh125" type="veh_passenger" depart="2878.90" departLane="best" from="109505207#3" to="362714491"/>
    <trip id="veh126" type="veh_passenger" depart="2901.93" departLane="best" from="898487483#0" to="-350146688#1"/>
    <trip id="veh127" type="veh_passenger" depart="2924.96" departLane="best" from="-1117713207#1" to="-350146688#1"/>
    <trip id="veh128" type="veh_passenger" depart="2948.00" departLane="best" departSpeed="max" from="1305093055#0" to="-258656153#2"/>
    <trip id="veh129" type="veh_passenger" depart="2971.03" departLane="best" from="-888879166" to="890146629"/>
    <trip id="veh130" type="veh_passenger" depart="2994.06" departLane="best" departSpeed="max" from="1305093055#0" to="587800918#5"/>
    <trip id="veh131" type="veh_passenger" depart="3017.09" departLane="best" departSpeed="max" from="-888879165#3" to="1305093055#1"/>
    <trip id="veh132" type="veh_passenger" depart="3040.12" departLane="best" from="587800918#1" to="587800918#5"/>
    <trip id="veh133" type="veh_passenger" depart="3063.15" departLane="best" from="890146631#1" to="-323987231#0"/>
    <trip id="veh134" type="veh_passenger" depart="3086.18" departLane="best" from="-109505208#4" to="1305093055#1"/>
    <trip id="veh135" type="veh_passenger" depart="3109.21" departLane="best" departSpeed="max" from="587800915#0" to="586657042#0"/>
    <trip id="veh136" type="veh_passenger" depart="3132.25" departLane="best" departSpeed="max" from="1307885878" to="586657042#0"/>
    <trip id="veh137" type="veh_passenger" depart="3155.28" departLane="best" departSpeed="max" from="1307885878" to="888879165#0"/>
    <trip id="veh138" type="veh_passenger" depart="3178.31" departLane="best" from="109505204#0" to="586657908#3"/>
    <trip id="veh139" type="veh_passenger" depart="3201.34" departLane="best" departSpeed="max" from="-555600352" to="362871972#1"/>
    <trip id="veh140" type="veh_passenger" depart="3224.37" departLane="best" from="-350146688#5" to="555600352"/>
    <trip id="veh141" type="veh_passenger" depart="3247.40" departLane="best" departSpeed="max" from="367762382#0" to="555600352"/>
    <trip id="veh142" type="veh_passenger" depart="3270.43" departLane="best" from="586664246#0" to="977815031"/>
    <trip id="veh143" type="veh_passenger" depart="3293.46" departLane="best" departSpeed="max" from="587800915#0" to="888879165#0"/>
    <trip id="veh144" type="veh_passenger" depart="3316.49" departLane="best" departSpeed="max" from="367762382#0" to="-739723515#1"/>
    <trip id="veh145" type="veh_passenger" depart="3339.53" departLane="best" departSpeed="max" from="587800915#0" to="362714491"/>
    <trip id="veh146" type="veh_passenger" depart="3362.56" departLane="best" from="586657042#3" to="586657908#3"/>
    <trip id="veh147" type="veh_passenger" depart="3385.59" departLane="best" departSpeed="max" from="-888879165#3" to="-323987231#0"/>
    <trip id="veh148" type="veh_passenger" depart="3408.62" departLane="best" departSpeed="max" from="1307885878" to="555600352"/>
    <trip id="veh149" type="veh_passenger" depart="3431.65" departLane="best" departSpeed="max" from="-555600348" to="586657042#1"/>
    <trip id="veh150" type="veh_passenger" depart="3454.68" departLane="best" from="898487483#1" to="587800918#5"/>
    <trip id="veh151" type="veh_passenger" depart="3477.71" departLane="best" departSpeed="max" from="-555600348" to="-341096510#1"/>
    <trip id="veh152" type="veh_passenger" depart="3500.74" departLane="best" from="-109505208#1" to="-341096510#1"/>
    <trip id="veh153" type="veh_passenger" depart="3523.78" departLane="best" from="109505204#0" to="-898487483#0"/>
    <trip id="veh154" type="veh_passenger" depart="3546.81" departLane="best" from="-258656153#2" to="1117713206"/>
    <trip id="veh155" type="veh_passenger" depart="3569.84" departLane="best" departSpeed="max" from="515970250" to="586657908#3"/>
    <trip id="veh156" type="veh_passenger" depart="3592.87" departLane="best" from="586657042#3" to="1305093055#1"/>
</routes>
