<?xml version="1.0" encoding="UTF-8"?>

<!-- generated on 2025-10-25 17:22:26 by Eclipse SUMO netedit Version 1.24.0
-->

<routes xmlns:xsi="http://www.w3.org/2001/XMLSchema-instance" xsi:noNamespaceSchemaLocation="http://sumo.dlr.de/xsd/routes_file.xsd">
    <!-- VTypes -->
    <vType id="truck_truck" vClass="truck"/>
    <!-- Vehicles, persons and containers (sorted by depart) -->
    <trip id="truck0" type="truck_truck" depart="0.00" departLane="best" departSpeed="max" from="-368286982" to="109505208#2"/>
    <trip id="truck1" type="truck_truck" depart="4.79" departLane="best" from="-227019974#0" to="-586661204"/>
    <trip id="truck2" type="truck_truck" depart="9.57" departLane="best" departSpeed="max" from="-226946947" to="-109505204#0"/>
    <trip id="truck3" type="truck_truck" depart="14.36" departLane="best" departSpeed="max" from="-444811602" to="-335575150"/>
    <trip id="truck4" type="truck_truck" depart="19.14" departLane="best" from="-555601438#1" to="368104071#2"/>
    <trip id="truck5" type="truck_truck" depart="23.93" departLane="best" from="-33836788#2" to="444826919#2"/>
    <trip id="truck6" type="truck_truck" depart="28.71" departLane="best" from="368096544#3" to="-367700883#2"/>
    <trip id="truck7" type="truck_truck" depart="33.50" departLane="best" from="586657908#0" to="368027034"/>
    <trip id="truck8" type="truck_truck" depart="38.29" departLane="best" departSpeed="max" from="-226946947" to="-620874944"/>
    <trip id="truck9" type="truck_truck" depart="43.07" departLane="best" from="367194255#0" to="620775234#2"/>
    <trip id="truck10" type="truck_truck" depart="47.86" departLane="best" from="-350146685#0" to="-368096545#2"/>
    <trip id="truck11" type="truck_truck" depart="52.64" departLane="best" departSpeed="max" from="376346459" to="628456652#1"/>
    <trip id="truck12" type="truck_truck" depart="57.43" departLane="best" from="-227100507#1" to="-227131720#1"/>
    <trip id="truck13" type="truck_truck" depart="62.21" departLane="best" from="368096547#2" to="-555600348#2"/>
    <trip id="truck14" type="truck_truck" depart="67.00" departLane="best" from="-620862578#0" to="615037318"/>
    <trip id="truck15" type="truck_truck" depart="71.79" departLane="best" from="368096546#0" to="350146688#0"/>
    <trip id="truck16" type="truck_truck" depart="76.57" departLane="best" from="462987552#1" to="34990514#2"/>
    <trip id="truck17" type="truck_truck" depart="81.36" departLane="best" departSpeed="max" from="329817169" to="-1305093056"/>
    <trip id="truck18" type="truck_truck" depart="86.14" departLane="best" from="-615037321" to="341456542"/>
    <trip id="truck19" type="truck_truck" depart="90.93" departLane="best" departSpeed="max" from="-103759573" to="1122773432#1"/>
    <trip id="truck20" type="truck_truck" depart="95.72" departLane="best" from="337132072#5" to="-444811599#0"/>
    <trip id="truck21" type="truck_truck" depart="100.50" departLane="best" from="-621949168#5" to="586657908#3"/>
    <trip id="truck22" type="truck_truck" depart="105.29" departLane="best" from="-341456542" to="1012133718#4"/>
    <trip id="truck23" type="truck_truck" depart="110.07" departLane="best" from="587800918#4" to="33768805#3"/>
    <trip id="truck24" type="truck_truck" depart="114.86" departLane="best" from="-109505207#2" to="587218913"/>
    <trip id="truck25" type="truck_truck" depart="119.64" departLane="best" departSpeed="max" from="341096510#0" to="1305093055#0"/>
    <trip id="truck26" type="truck_truck" depart="124.43" departLane="best" from="-116690596#1" to="620865939"/>
    <trip id="truck27" type="truck_truck" depart="129.22" departLane="best" from="-336988370#0" to="33973140#4"/>
    <trip id="truck28" type="truck_truck" depart="134.00" departLane="best" from="292749336#6" to="-620768869#0"/>
    <trip id="truck29" type="truck_truck" depart="138.79" departLane="best" from="-444811599#1" to="-888879165"/>
    <trip id="truck30" type="truck_truck" depart="143.57" departLane="best" from="-586659717" to="795671604#2"/>
    <trip id="truck31" type="truck_truck" depart="148.36" departLane="best" from="33768805#3" to="1305093054"/>
    <trip id="truck32" type="truck_truck" depart="153.14" departLane="best" departSpeed="max" from="341096510#0" to="1122773432#0"/>
    <trip id="truck33" type="truck_truck" depart="157.93" departLane="best" departSpeed="max" from="-341456563" to="-109505208#2"/>
    <trip id="truck34" type="truck_truck" depart="162.72" departLane="best" from="795671604#0" to="586659413"/>
    <trip id="truck35" type="truck_truck" depart="167.50" departLane="best" from="-227131720#1" to="33768805#2"/>
    <trip id="truck36" type="truck_truck" depart="172.29" departLane="best" from="-1324287528#3" to="-337132049"/>
    <trip id="truck37" type="truck_truck" depart="177.07" departLane="best" from="-620862578#4" to="337540073"/>
    <trip id="truck38" type="truck_truck" depart="181.86" departLane="best" from="586657908#1" to="-620862578#1"/>
    <trip id="truck39" type="truck_truck" depart="186.64" departLane="best" departSpeed="max" from="586595416" to="-620849594"/>
    <trip id="truck40" type="truck_truck" depart="191.43" departLane="best" from="367700934#1" to="615037321"/>
    <trip id="truck41" type="truck_truck" depart="196.22" departLane="best" departSpeed="max" from="-226946947" to="337132072#5"/>
    <trip id="truck42" type="truck_truck" depart="201.00" departLane="best" departSpeed="max" from="586595416" to="367700883#3"/>
    <trip id="truck43" type="truck_truck" depart="205.79" departLane="best" from="-368096545#2" to="-620768869#2"/>
    <trip id="truck44" type="truck_truck" depart="210.57" departLane="best" departSpeed="max" from="615037303" to="-367700934#3"/>
    <trip id="truck45" type="truck_truck" depart="215.36" departLane="best" from="1304287974" to="367762382#2"/>
    <trip id="truck46" type="truck_truck" depart="220.15" departLane="best" from="350146688#1" to="337132072#5"/>
    <trip id="truck47" type="truck_truck" depart="224.93" departLane="best" from="587218913" to="34990514#0"/>
    <trip id="truck48" type="truck_truck" depart="229.72" departLane="best" from="620772305#0" to="34990515#1"/>
    <trip id="truck49" type="truck_truck" depart="234.50" departLane="best" from="620768869#0" to="-368027023#1"/>
    <trip id="truck50" type="truck_truck" depart="239.29" departLane="best" from="-368096544#0" to="-116690593#1"/>
    <trip id="truck51" type="truck_truck" depart="244.07" departLane="best" from="33973140#1" to="555600352"/>
    <trip id="truck52" type="truck_truck" depart="248.86" departLane="best" departSpeed="max" from="586657041" to="-620849594"/>
    <trip id="truck53" type="truck_truck" depart="253.65" departLane="best" from="-117467837" to="368286982"/>
    <trip id="truck54" type="truck_truck" depart="258.43" departLane="best" from="898487494#1" to="103759573"/>
    <trip id="truck55" type="truck_truck" depart="263.22" departLane="best" from="615037322" to="227131720#2"/>
    <trip id="truck56" type="truck_truck" depart="268.00" departLane="best" from="-1324287528#1" to="-620768869#1"/>
    <trip id="truck57" type="truck_truck" depart="272.79" departLane="best" from="-368027027#1" to="-620874944"/>
    <trip id="truck58" type="truck_truck" depart="277.57" departLane="best" from="368096545#4" to="362714491"/>
    <trip id="truck59" type="truck_truck" depart="282.36" departLane="best" from="-620870374" to="336988370#0"/>
    <trip id="truck60" type="truck_truck" depart="287.15" departLane="best" from="-327075459#0" to="350146688#0"/>
    <trip id="truck61" type="truck_truck" depart="291.93" departLane="best" from="34990514#0" to="341456542"/>
    <trip id="truck62" type="truck_truck" depart="296.72" departLane="best" from="444826908#2" to="850677552"/>
    <trip id="truck63" type="truck_truck" depart="301.50" departLane="best" from="367762382#4" to="795671604#4"/>
    <trip id="truck64" type="truck_truck" depart="306.29" departLane="best" from="33973140#2" to="-368104091#6"/>
    <trip id="truck65" type="truck_truck" depart="311.07" departLane="best" from="586664247#0" to="359450383#1"/>
    <trip id="truck66" type="truck_truck" depart="315.86" departLane="best" departSpeed="max" from="227131720#0" to="-586664246#0"/>
    <trip id="truck67" type="truck_truck" depart="320.65" departLane="best" from="292749336#6" to="620775234#2"/>
    <trip id="truck68" type="truck_truck" depart="325.43" departLane="best" departSpeed="max" from="-620775234#2" to="-109505208#0"/>
    <trip id="truck69" type="truck_truck" depart="330.22" departLane="best" from="-337540069#1" to="226946947"/>
    <trip id="truck70" type="truck_truck" depart="335.00" departLane="best" from="586657042#0" to="-116690593#1"/>
    <trip id="truck71" type="truck_truck" depart="339.79" departLane="best" from="-621949168#2" to="-586661204"/>
    <trip id="truck72" type="truck_truck" depart="344.57" departLane="best" from="-850677551#3" to="341456563"/>
    <trip id="truck73" type="truck_truck" depart="349.36" departLane="best" departSpeed="max" from="116690593#0" to="-368104091#2"/>
    <trip id="truck74" type="truck_truck" depart="354.15" departLane="best" from="587800915#0" to="555600348#0"/>
    <trip id="truck75" type="truck_truck" depart="358.93" departLane="best" from="-227131720#2" to="620862578#0"/>
    <trip id="truck76" type="truck_truck" depart="363.72" departLane="best" departSpeed="max" from="341096510#0" to="1012133718#4"/>
    <trip id="truck77" type="truck_truck" depart="368.50" departLane="best" from="368104091#5" to="586661204"/>
    <trip id="truck78" type="truck_truck" depart="373.29" departLane="best" from="1304287974" to="587800918#0"/>
    <trip id="truck79" type="truck_truck" depart="378.08" departLane="best" from="1305093055#0" to="341456566"/>
    <trip id="truck80" type="truck_truck" depart="382.86" departLane="best" from="362871972#3" to="-621949168#1"/>
    <trip id="truck81" type="truck_truck" depart="387.65" departLane="best" departSpeed="max" from="-620862578#6" to="587800918#2"/>
    <trip id="truck82" type="truck_truck" depart="392.43" departLane="best" from="337132072#5" to="-109505208#2"/>
    <trip id="truck83" type="truck_truck" depart="397.22" departLane="best" departSpeed="max" from="329817169" to="368104071#4"/>
    <trip id="truck84" type="truck_truck" depart="402.00" departLane="best" departSpeed="max" from="116690593#0" to="367762382#4"/>
    <trip id="truck85" type="truck_truck" depart="406.79" departLane="best" from="-615037318" to="-620768869#3"/>
    <trip id="truck86" type="truck_truck" depart="411.58" departLane="best" departSpeed="max" from="-587793740" to="-444811599#0"/>
    <trip id="truck87" type="truck_truck" depart="416.36" departLane="best" departSpeed="max" from="620869256" to="615037318"/>
    <trip id="truck88" type="truck_truck" depart="421.15" departLane="best" from="-586664246#3" to="33973140#3"/>
    <trip id="truck89" type="truck_truck" depart="425.93" departLane="best" departSpeed="max" from="-628456652#1" to="-33973140#3"/>
    <trip id="truck90" type="truck_truck" depart="430.72" departLane="best" from="888879165" to="620772305#1"/>
    <trip id="truck91" type="truck_truck" depart="435.50" departLane="best" departSpeed="max" from="-444811602" to="-327075459#0"/>
    <trip id="truck92" type="truck_truck" depart="440.29" departLane="best" from="-620768869#1" to="368209083"/>
    <trip id="truck93" type="truck_truck" depart="445.08" departLane="best" from="620862578#3" to="1012133718#0"/>
    <trip id="truck94" type="truck_truck" depart="449.86" departLane="best" from="-861783801" to="33836788#2"/>
    <trip id="truck95" type="truck_truck" depart="454.65" departLane="best" from="586657042#2" to="367707574#2"/>
    <trip id="truck96" type="truck_truck" depart="459.43" departLane="best" from="888879165" to="-337132072#7"/>
    <trip id="truck97" type="truck_truck" depart="464.22" departLane="best" from="-227131720#1" to="-335575150"/>
    <trip id="truck98" type="truck_truck" depart="469.00" departLane="best" from="620862578#5" to="-444811599#2"/>
    <trip id="truck99" type="truck_truck" depart="473.79" departLane="best" departSpeed="max" from="-226946947" to="-337540069#1"/>
    <trip id="truck100" type="truck_truck" depart="478.58" departLane="best" from="-103765643#3" to="1408953124#2"/>
    <trip id="truck101" type="truck_truck" depart="483.36" departLane="best" departSpeed="max" from="337540075" to="-444476598"/>
    <trip id="truck102" type="truck_truck" depart="488.15" departLane="best" from="-103765643#0" to="-116690480#0"/>
    <trip id="truck103" type="truck_truck" depart="492.93" departLane="best" from="359450383#1" to="-1012133718#0"/>
    <trip id="truck104" type="truck_truck" depart="497.72" departLane="best" from="-368096546#1" to="1012133718#2"/>
    <trip id="truck105" type="truck_truck" depart="502.50" departLane="best" departSpeed="max" from="620849594" to="116690479#0"/>
    <trip id="truck106" type="truck_truck" depart="507.29" departLane="best" from="33768805#1" to="-1304287973"/>
    <trip id="truck107" type="truck_truck" depart="512.08" departLane="best" from="-367194255#2" to="555601518"/>
    <trip id="truck108" type="truck_truck" depart="516.86" departLane="best" departSpeed="max" from="1012133719" to="1122773432#0"/>
    <trip id="truck109" type="truck_truck" depart="521.65" departLane="best" departSpeed="max" from="586595416" to="34990515#2"/>
    <trip id="truck110" type="truck_truck" depart="526.43" departLane="best" from="-34990516#1" to="103765643#0"/>
    <trip id="truck111" type="truck_truck" depart="531.22" departLane="best" departSpeed="max" from="620874944" to="-350146688#2"/>
    <trip id="truck112" type="truck_truck" depart="536.01" departLane="best" departSpeed="max" from="-620862578#6" to="-350146685#1"/>
    <trip id="truck113" type="truck_truck" depart="540.79" departLane="best" departSpeed="max" from="-444811602" to="-367762378"/>
    <trip id="truck114" type="truck_truck" depart="545.58" departLane="best" from="33973140#1" to="368104091#0"/>
    <trip id="truck115" type="truck_truck" depart="550.36" departLane="best" from="587800915#5" to="-337132072#3"/>
    <trip id="truck116" type="truck_truck" depart="555.15" departLane="best" from="898487494#1" to="367700883#0"/>
    <trip id="truck117" type="truck_truck" depart="559.93" departLane="best" departSpeed="max" from="-368286982" to="362871972#1"/>
    <trip id="truck118" type="truck_truck" depart="564.72" departLane="best" departSpeed="max" from="337132049" to="-615037323"/>
    <trip id="truck119" type="truck_truck" depart="569.51" departLane="best" departSpeed="max" from="-368286982" to="-227131720#0"/>
    <trip id="truck120" type="truck_truck" depart="574.29" departLane="best" from="-367762382#4" to="586664247#1"/>
    <trip id="truck121" type="truck_truck" depart="579.08" departLane="best" from="-620768869#4" to="34990515#2"/>
    <trip id="truck122" type="truck_truck" depart="583.86" departLane="best" from="-795671604#3" to="-367762382#2"/>
    <trip id="truck123" type="truck_truck" depart="588.65" departLane="best" from="-795671604#1" to="-350146688#1"/>
    <trip id="truck124" type="truck_truck" depart="593.43" departLane="best" from="-33768805#4" to="444826919#2"/>
    <trip id="truck125" type="truck_truck" depart="598.22" departLane="best" from="-555601438#1" to="367194255#3"/>
    <trip id="truck126" type="truck_truck" depart="603.01" departLane="best" from="117467837" to="-109505207#3"/>
    <trip id="truck127" type="truck_truck" depart="607.79" departLane="best" departSpeed="max" from="-587793740" to="586664246#3"/>
    <trip id="truck128" type="truck_truck" depart="612.58" departLane="best" departSpeed="max" from="-587793740" to="116690596#1"/>
    <trip id="truck129" type="truck_truck" depart="617.36" departLane="best" from="116690479#1" to="368027027#2"/>
    <trip id="truck130" type="truck_truck" depart="622.15" departLane="best" from="587800915#2" to="226946947"/>
    <trip id="truck131" type="truck_truck" depart="626.93" departLane="best" from="586664246#0" to="-33768805#0"/>
    <trip id="truck132" type="truck_truck" depart="631.72" departLane="best" departSpeed="max" from="-34990514#4" to="341456566"/>
    <trip id="truck133" type="truck_truck" depart="636.51" departLane="best" departSpeed="max" from="337132049" to="109505204#0"/>
    <trip id="truck134" type="truck_truck" depart="641.29" departLane="best" from="-795671604#4" to="628456652#1"/>
    <trip id="truck135" type="truck_truck" depart="646.08" departLane="best" departSpeed="max" from="-620775234#2" to="-1012133718#3"/>
    <trip id="truck136" type="truck_truck" depart="650.86" departLane="best" from="-888879165" to="226946947"/>
    <trip id="truck137" type="truck_truck" depart="655.65" departLane="best" from="368096546#1" to="341456566"/>
    <trip id="truck138" type="truck_truck" depart="660.44" departLane="best" departSpeed="max" from="615037303" to="-368096544#0"/>
    <trip id="truck139" type="truck_truck" depart="665.22" departLane="best" departSpeed="max" from="615037303" to="462987551"/>
    <trip id="truck140" type="truck_truck" depart="670.01" departLane="best" from="-795671604#3" to="620862578#6"/>
    <trip id="truck141" type="truck_truck" depart="674.79" departLane="best" from="587800918#4" to="795671604#0"/>
    <trip id="truck142" type="truck_truck" depart="679.58" departLane="best" from="-628456652#0" to="-620869256"/>
    <trip id="truck143" type="truck_truck" depart="684.36" departLane="best" from="795671604#4" to="-116690479#0"/>
    <trip id="truck144" type="truck_truck" depart="689.15" departLane="best" departSpeed="max" from="620869256" to="555601518"/>
    <trip id="truck145" type="truck_truck" depart="693.94" departLane="best" from="-367194255#4" to="341456563"/>
    <trip id="truck146" type="truck_truck" depart="698.72" departLane="best" departSpeed="max" from="-620775234#2" to="368104071#4"/>
    <trip id="truck147" type="truck_truck" depart="703.51" departLane="best" from="620772305#1" to="368104091#3"/>
    <trip id="truck148" type="truck_truck" depart="708.29" departLane="best" departSpeed="max" from="586657041" to="-444476598"/>
    <trip id="truck149" type="truck_truck" depart="713.08" departLane="best" from="620862578#3" to="-367700934#1"/>
    <trip id="truck150" type="truck_truck" depart="717.86" departLane="best" from="367762382#2" to="367194255#1"/>
    <trip id="truck151" type="truck_truck" depart="722.65" departLane="best" from="-615037320#2" to="620862578#6"/>
    <trip id="truck152" type="truck_truck" depart="727.44" departLane="best" departSpeed="max" from="-586659413" to="341456566"/>
    <trip id="truck153" type="truck_truck" depart="732.22" departLane="best" from="-337132072#7" to="367762382#2"/>
    <trip id="truck154" type="truck_truck" depart="737.01" departLane="best" from="116690479#3" to="-323987231#0"/>
    <trip id="truck155" type="truck_truck" depart="741.79" departLane="best" departSpeed="max" from="586657041" to="226946947"/>
    <trip id="truck156" type="truck_truck" depart="746.58" departLane="best" from="33973140#4" to="-368027050"/>
    <trip id="truck157" type="truck_truck" depart="751.36" departLane="best" from="350146688#1" to="-586659718"/>
    <trip id="truck158" type="truck_truck" depart="756.15" departLane="best" from="-116690480#2" to="-620862578#1"/>
    <trip id="truck159" type="truck_truck" depart="760.94" departLane="best" from="368104071#4" to="226946949"/>
    <trip id="truck160" type="truck_truck" depart="765.72" departLane="best" from="362871972#3" to="-33973140#3"/>
    <trip id="truck161" type="truck_truck" depart="770.51" departLane="best" departSpeed="max" from="-227019974#1" to="-341096510#0"/>
    <trip id="truck162" type="truck_truck" depart="775.29" departLane="best" departSpeed="max" from="1012133719" to="-555600352"/>
    <trip id="truck163" type="truck_truck" depart="780.08" departLane="best" from="586657042#3" to="227100505#0"/>
    <trip id="truck164" type="truck_truck" depart="784.86" departLane="best" from="109505207#0" to="-620862578#2"/>
    <trip id="truck165" type="truck_truck" depart="789.65" departLane="best" from="-34990515#1" to="-34990516#1"/>
    <trip id="truck166" type="truck_truck" depart="794.44" departLane="best" departSpeed="max" from="-368286982" to="-109505204#2"/>
    <trip id="truck167" type="truck_truck" depart="799.22" departLane="best" departSpeed="max" from="-34990514#4" to="337132072#3"/>
    <trip id="truck168" type="truck_truck" depart="804.01" departLane="best" departSpeed="max" from="116690593#0" to="1122773432#1"/>
    <trip id="truck169" type="truck_truck" depart="808.79" departLane="best" departSpeed="max" from="1408953126#0" to="323987231#1"/>
    <trip id="truck170" type="truck_truck" depart="813.58" departLane="best" from="368190051" to="-444826908#2"/>
    <trip id="truck171" type="truck_truck" depart="818.37" departLane="best" from="462986979" to="1408953126#1"/>
    <trip id="truck172" type="truck_truck" depart="823.15" departLane="best" departSpeed="max" from="-367700883#3" to="615037324"/>
    <trip id="truck173" type="truck_truck" depart="827.94" departLane="best" from="-116690593#1" to="586659413"/>
    <trip id="truck174" type="truck_truck" depart="832.72" departLane="best" from="368096546#0" to="586664246#4"/>
    <trip id="truck175" type="truck_truck" depart="837.51" departLane="best" departSpeed="max" from="-444811602" to="-555600351#0"/>
    <trip id="truck176" type="truck_truck" depart="842.29" departLane="best" departSpeed="max" from="1408953126#0" to="586657908#2"/>
    <trip id="truck177" type="truck_truck" depart="847.08" departLane="best" from="-620772305#1" to="898487494#1"/>
    <trip id="truck178" type="truck_truck" depart="851.87" departLane="best" from="615037318" to="368096546#0"/>
    <trip id="truck179" type="truck_truck" depart="856.65" departLane="best" departSpeed="max" from="-587793740" to="337540073"/>
    <trip id="truck180" type="truck_truck" depart="861.44" departLane="best" from="-368027034" to="850677551#0"/>
    <trip id="truck181" type="truck_truck" depart="866.22" departLane="best" departSpeed="max" from="337132049" to="-116690596#1"/>
    <trip id="truck182" type="truck_truck" depart="871.01" departLane="best" departSpeed="max" from="1309954088" to="-336988370#1"/>
    <trip id="truck183" type="truck_truck" depart="875.79" departLane="best" departSpeed="max" from="-586659413" to="359450383#1"/>
    <trip id="truck184" type="truck_truck" depart="880.58" departLane="best" departSpeed="max" from="-227019974#1" to="586657042#2"/>
    <trip id="truck185" type="truck_truck" depart="885.37" departLane="best" from="359450383#1" to="362871972#2"/>
    <trip id="truck186" type="truck_truck" depart="890.15" departLane="best" departSpeed="max" from="-586659413" to="-329817169"/>
    <trip id="truck187" type="truck_truck" depart="894.94" departLane="best" departSpeed="max" from="620869256" to="350146685#1"/>
    <trip id="truck188" type="truck_truck" depart="899.72" departLane="best" from="368096546#1" to="103759573"/>
    <trip id="truck189" type="truck_truck" depart="904.51" departLane="best" from="-368096544#3" to="226946947"/>
    <trip id="truck190" type="truck_truck" depart="909.29" departLane="best" from="-1304287973" to="341456566"/>
    <trip id="truck191" type="truck_truck" depart="914.08" departLane="best" from="350146688#5" to="-33768805#1"/>
    <trip id="truck192" type="truck_truck" depart="918.87" departLane="best" from="34990516#1" to="212414966"/>
    <trip id="truck193" type="truck_truck" depart="923.65" departLane="best" from="444826908#2" to="1122773432#1"/>
    <trip id="truck194" type="truck_truck" depart="928.44" departLane="best" from="-888879166" to="-977815031"/>
    <trip id="truck195" type="truck_truck" depart="933.22" departLane="best" departSpeed="max" from="615037303" to="-327075459#1"/>
    <trip id="truck196" type="truck_truck" depart="938.01" departLane="best" departSpeed="max" from="335575150" to="367762382#3"/>
    <trip id="truck197" type="truck_truck" depart="942.79" departLane="best" from="-1324287528#2" to="368096547#1"/>
    <trip id="truck198" type="truck_truck" depart="947.58" departLane="best" departSpeed="max" from="620869256" to="-109505208#0"/>
    <trip id="truck199" type="truck_truck" depart="952.37" departLane="best" from="-368096545#2" to="586657042#0"/>
    <trip id="truck200" type="truck_truck" depart="957.15" departLane="best" from="444826908#0" to="337132072#3"/>
    <trip id="truck201" type="truck_truck" depart="961.94" departLane="best" from="620862578#3" to="292749336#4"/>
    <trip id="truck202" type="truck_truck" depart="966.72" departLane="best" from="-368096544#1" to="444826919#2"/>
    <trip id="truck203" type="truck_truck" depart="971.51" departLane="best" from="-444826919#1" to="-367762382#2"/>
    <trip id="truck204" type="truck_truck" depart="976.30" departLane="best" departSpeed="max" from="-367700883#3" to="444826908#1"/>
    <trip id="truck205" type="truck_truck" depart="981.08" departLane="best" departSpeed="max" from="620869256" to="-337540075"/>
    <trip id="truck206" type="truck_truck" depart="985.87" departLane="best" from="109505208#3" to="-1408953124#1"/>
    <trip id="truck207" type="truck_truck" depart="990.65" departLane="best" from="-116690479#3" to="-739723515#0"/>
    <trip id="truck208" type="truck_truck" depart="995.44" departLane="best" from="-1117713207#1" to="-367707574#0"/>
    <trip id="truck209" type="truck_truck" depart="1000.22" departLane="best" from="795671604#6" to="-586659717"/>
    <trip id="truck210" type="truck_truck" depart="1005.01" departLane="best" from="367194255#4" to="-620869256"/>
    <trip id="truck211" type="truck_truck" depart="1009.80" departLane="best" from="-586659718" to="-620874944"/>
    <trip id="truck212" type="truck_truck" depart="1014.58" departLane="best" departSpeed="max" from="620849594" to="-227131720#0"/>
    <trip id="truck213" type="truck_truck" depart="1019.37" departLane="best" departSpeed="max" from="586595416" to="368027027#1"/>
    <trip id="truck214" type="truck_truck" depart="1024.15" departLane="best" departSpeed="max" from="586657041" to="444826908#2"/>
    <trip id="truck215" type="truck_truck" depart="1028.94" departLane="best" from="586664246#4" to="-227131720#0"/>
    <trip id="truck216" type="truck_truck" depart="1033.72" departLane="best" departSpeed="max" from="-587793740" to="33768805#5"/>
    <trip id="truck217" type="truck_truck" depart="1038.51" departLane="best" from="-615037321" to="-350146688#3"/>
    <trip id="truck218" type="truck_truck" depart="1043.30" departLane="best" departSpeed="max" from="-368286982" to="444826908#0"/>
    <trip id="truck219" type="truck_truck" depart="1048.08" departLane="best" from="337132072#2" to="795671604#2"/>
    <trip id="truck220" type="truck_truck" depart="1052.87" departLane="best" departSpeed="max" from="323987231#0" to="-117467837"/>
    <trip id="truck221" type="truck_truck" depart="1057.65" departLane="best" from="-336988370#0" to="444811602"/>
    <trip id="truck222" type="truck_truck" depart="1062.44" departLane="best" from="850677551#1" to="620768866#1"/>
    <trip id="truck223" type="truck_truck" depart="1067.22" departLane="best" departSpeed="max" from="-103759573" to="555601438#2"/>
    <trip id="truck224" type="truck_truck" depart="1072.01" departLane="best" departSpeed="max" from="620869256" to="-367762378"/>
    <trip id="truck225" type="truck_truck" depart="1076.80" departLane="best" from="-368096547#0" to="-350146688#3"/>
    <trip id="truck226" type="truck_truck" depart="1081.58" departLane="best" from="-621949168#1" to="587800918#1"/>
    <trip id="truck227" type="truck_truck" depart="1086.37" departLane="best" from="555601438#0" to="-335575150"/>
    <trip id="truck228" type="truck_truck" depart="1091.15" departLane="best" from="-337540069#1" to="444826919#2"/>
    <trip id="truck229" type="truck_truck" depart="1095.94" departLane="best" from="-462987552#0" to="116690596#2"/>
    <trip id="truck230" type="truck_truck" depart="1100.73" departLane="best" from="586657908#0" to="850677551#0"/>
    <trip id="truck231" type="truck_truck" depart="1105.51" departLane="best" from="-621949168#2" to="337540073"/>
    <trip id="truck232" type="truck_truck" depart="1110.30" departLane="best" from="-586664246#4" to="-367194255#0"/>
    <trip id="truck233" type="truck_truck" depart="1115.08" departLane="best" departSpeed="max" from="620869256" to="-350146685#1"/>
    <trip id="truck234" type="truck_truck" depart="1119.87" departLane="best" from="-620775234#1" to="-368204852"/>
    <trip id="truck235" type="truck_truck" depart="1124.65" departLane="best" departSpeed="max" from="444476598" to="350146685#1"/>
    <trip id="truck236" type="truck_truck" depart="1129.44" departLane="best" from="-620768869#4" to="-368096545#0"/>
    <trip id="truck237" type="truck_truck" depart="1134.23" departLane="best" from="368190050#1" to="-329817169"/>
    <trip id="truck238" type="truck_truck" depart="1139.01" departLane="best" from="615037320#1" to="-337132049"/>
    <trip id="truck239" type="truck_truck" depart="1143.80" departLane="best" from="620862578#5" to="-109505207#2"/>
    <trip id="truck240" type="truck_truck" depart="1148.58" departLane="best" from="-109505207#0" to="620865939"/>
    <trip id="truck241" type="truck_truck" depart="1153.37" departLane="best" from="-33973140#3" to="462987552#1"/>
    <trip id="truck242" type="truck_truck" depart="1158.15" departLane="best" departSpeed="max" from="116690480#0" to="-337132072#4"/>
    <trip id="truck243" type="truck_truck" depart="1162.94" departLane="best" from="-367762382#0" to="33768805#0"/>
    <trip id="truck244" type="truck_truck" depart="1167.73" departLane="best" departSpeed="max" from="1408953126#0" to="103765643#2"/>
    <trip id="truck245" type="truck_truck" depart="1172.51" departLane="best" from="586664246#2" to="1049377329"/>