<?xml version="1.0" encoding="UTF-8"?>

<!-- generated on 2025-11-04 14:17:07.351253 by osmWebWizard.py UNKNOWN
<configuration>
    <net-file value="/home/sour/Sumo/2025-11-04-13-16-48/2025-11-04-14-16-43/osm.net.xml.gz"/>
    <output-trip-file value="/home/sour/Sumo/2025-11-04-13-16-48/2025-11-04-14-16-43/osm.passenger.trips.xml"/>
    <route-file value="/home/sour/Sumo/2025-11-04-13-16-48/2025-11-04-14-16-43/osm.passenger.rou.xml"/>
    <prefix value="veh"/>
    <trip-attributes value="departLane=&quot;best&quot;"/>
    <fringe-start-attributes value="departSpeed=&quot;max&quot;"/>
    <vehicle-class value="passenger"/>
    <lanes value="True"/>
    <fringe-factor value="5"/>
    <allow-fringe.min-length value="1000.0"/>
    <edge-permission value="passenger"/>
    <via-edge-types value="highway.motorway,highway.motorway_link,highway.trunk_link,highway.primary_link,highway.secondary_link,highway.tertiary_link"/>
    <seed value="44"/>
    <min-distance value="300.0"/>
    <min-distance.fringe value="10.0"/>
    <remove-loops value="True"/>
    <insertion-density value="12.0"/>
</configuration>
-->

<routes xmlns:xsi="http://www.w3.org/2001/XMLSchema-instance" xsi:noNamespaceSchemaLocation="http://sumo.dlr.de/xsd/routes_file.xsd">
    <vType id="veh_passenger" vClass="passenger"/>
    <trip id="veh0" depart="0.00" from="116690480#2" to="258245655#6" departLane="best" type="veh_passenger"/>
    <trip id="veh1" depart="2.16" from="586664246#3" to="-359450380#1" departLane="best" type="veh_passenger"/>
    <trip id="veh2" depart="4.32" from="-515235348#2" to="-154091493#0" departLane="best" type="veh_passenger"/>
    <trip id="veh3" depart="6.48" from="-282891298#1" to="-109505208#3" departLane="best" type="veh_passenger"/>
    <trip id="veh4" depart="8.64" from="-340934815#1" to="232778104#0" departLane="best" type="veh_passenger" departSpeed="max"/>
    <trip id="veh5" depart="10.80" from="898487481#2" to="368104071#3" departLane="best" type="veh_passenger"/>
    <trip id="veh6" depart="12.96" from="444475977" to="-586663581#0" departLane="best" type="veh_passenger" departSpeed="max"/>
    <trip id="veh7" depart="15.12" from="-258136096#2" to="586657042#2" departLane="best" type="veh_passenger"/>
    <trip id="veh8" depart="17.28" from="34990516#2" to="-260062647#2" departLane="best" type="veh_passenger"/>
    <trip id="veh9" depart="19.44" from="-253581894#3" to="-258245655#7" departLane="best" type="veh_passenger"/>
    <trip id="veh10" depart="21.60" from="359450382#2" to="880026448" departLane="best" type="veh_passenger"/>
    <trip id="veh11" depart="23.76" from="232725194" to="620204986#1" departLane="best" type="veh_passenger"/>
    <trip id="veh12" depart="25.92" from="-368096547#3" to="-579777168#1" departLane="best" type="veh_passenger" departSpeed="max"/>
    <trip id="veh13" depart="28.09" from="-579914859" to="-230218179#0" departLane="best" type="veh_passenger" departSpeed="max"/>
    <trip id="veh14" depart="30.25" from="368096545#2" to="586557573#3" departLane="best" type="veh_passenger"/>
    <trip id="veh15" depart="32.41" from="444806103" to="515235349#3" departLane="best" type="veh_passenger" departSpeed="max"/>
    <trip id="veh16" depart="34.57" from="362871970#3" to="-587218913" departLane="best" type="veh_passenger"/>
    <trip id="veh17" depart="36.73" from="586569891" to="340934820#0" departLane="best" type="veh_passenger" departSpeed="max"/>
    <trip id="veh18" depart="38.89" from="337002317#1" to="258245655#3" departLane="best" type="veh_passenger"/>
    <trip id="veh19" depart="41.05" from="-556908155" to="1312476769#1" departLane="best" type="veh_passenger" departSpeed="max"/>
    <trip id="veh20" depart="43.21" from="586339378#1" to="367762382#4" departLane="best" type="veh_passenger"/>
    <trip id="veh21" depart="45.37" from="-674860564" to="586557575#1" departLane="best" type="veh_passenger" departSpeed="max"/>
    <trip id="veh22" depart="47.53" from="586592651" to="-230218149#0" departLane="best" type="veh_passenger"/>
    <trip id="veh23" depart="49.69" from="-340934816#0" to="-444803711#1" departLane="best" type="veh_passenger"/>
    <trip id="veh24" depart="51.85" from="-109565746#0" to="555601518" departLane="best" type="veh_passenger"/>
    <trip id="veh25" depart="54.01" from="362871968#0" to="258245655#9" departLane="best" type="veh_passenger"/>
    <trip id="veh26" depart="56.17" from="898487494#1" to="-630357163" departLane="best" type="veh_passenger"/>
    <trip id="veh27" depart="58.33" from="-630358621#4" to="586595146#2" departLane="best" type="veh_passenger"/>
    <trip id="veh28" depart="60.49" from="33836187#6" to="-230244710#0" departLane="best" type="veh_passenger"/>
    <trip id="veh29" depart="62.65" from="212414966" to="-230218169" departLane="best" type="veh_passenger" departSpeed="max"/>
    <trip id="veh30" depart="64.81" from="359450381" to="-282841463#0" departLane="best" type="veh_passenger"/>
    <trip id="veh31" depart="66.97" from="-367762382#2" to="359450380#1" departLane="best" type="veh_passenger"/>
    <trip id="veh32" depart="69.13" from="586574698#2" to="33836187#2" departLane="best" type="veh_passenger"/>
    <trip id="veh33" depart="71.29" from="-586659413" to="359450382#3" departLane="best" type="veh_passenger" departSpeed="max"/>
    <trip id="veh34" depart="73.45" from="-586368634#1" to="-109505207#3" departLane="best" type="veh_passenger"/>
    <trip id="veh35" depart="75.61" from="-586373149#2" to="368096546#0" departLane="best" type="veh_passenger"/>
    <trip id="veh36" depart="77.77" from="359450382#3" to="-368096545#0" departLane="best" type="veh_passenger"/>
    <trip id="veh37" depart="79.94" from="-586556424#3" to="704235788" departLane="best" type="veh_passenger"/>
    <trip id="veh38" depart="82.10" from="-586323556" to="-230283484#0" departLane="best" type="veh_passenger"/>
    <trip id="veh39" depart="84.26" from="258226027#0" to="611487894" departLane="best" type="veh_passenger"/>
    <trip id="veh40" depart="86.42" from="337540075" to="258325392#0" departLane="best" type="veh_passenger" departSpeed="max"/>
    <trip id="veh41" depart="88.58" from="232725196" to="-586323859" departLane="best" type="veh_passenger" departSpeed="max"/>
    <trip id="veh42" depart="90.74" from="282840323#1" to="630358350#5" departLane="best" type="veh_passenger"/>
    <trip id="veh43" depart="92.90" from="-258136096#1" to="-556909867#3" departLane="best" type="veh_passenger"/>
    <trip id="veh44" depart="95.06" from="630358621#3" to="362714493#1" departLane="best" type="veh_passenger"/>
    <trip id="veh45" depart="97.22" from="-258136097#1" to="1123135221#1" departLane="best" type="veh_passenger"/>
    <trip id="veh46" depart="99.38" from="362871970#0" to="615037324" departLane="best" type="veh_passenger"/>
    <trip id="veh47" depart="101.54" from="-258226055#3" to="615037309#0" departLane="best" type="veh_passenger"/>
    <trip id="veh48" depart="103.70" from="579925088" to="-586319513" departLane="best" type="veh_passenger" departSpeed="max"/>
    <trip id="veh49" depart="105.86" from="258325392#2" to="586557577#1" departLane="best" type="veh_passenger"/>
    <trip id="veh50" depart="108.02" from="-569991741#3" to="388949441#1" departLane="best" type="veh_passenger"/>
    <trip id="veh51" depart="110.18" from="292749268#1" to="-253581894#3" departLane="best" type="veh_passenger"/>
    <trip id="veh52" depart="112.34" from="-586368634#0" to="109505207#3" departLane="best" type="veh_passenger"/>
    <trip id="veh53" depart="114.50" from="-337540068#0" to="630358350#6" departLane="best" type="veh_passenger"/>
    <trip id="veh54" depart="116.66" from="-579914859" to="-444805127#3" departLane="best" type="veh_passenger" departSpeed="max"/>
    <trip id="veh55" depart="118.82" from="337540073" to="258226028#0" departLane="best" type="veh_passenger"/>
    <trip id="veh56" depart="120.98" from="-620204986#1" to="-586661204" departLane="best" type="veh_passenger" departSpeed="max"/>
    <trip id="veh57" depart="123.14" from="232778101#1" to="615037319#1" departLane="best" type="veh_passenger"/>
    <trip id="veh58" depart="125.30" from="-258226029#2" to="615037324" departLane="best" type="veh_passenger"/>
    <trip id="veh59" depart="127.46" from="630358350#2" to="367762382#3" departLane="best" type="veh_passenger"/>
    <trip id="veh60" depart="129.62" from="586368631" to="-739723515#1" departLane="best" type="veh_passenger"/>
    <trip id="veh61" depart="131.78" from="739723515#0" to="515714958#2" departLane="best" type="veh_passenger"/>
    <trip id="veh62" depart="133.95" from="426788207" to="1305093056" departLane="best" type="veh_passenger"/>
    <trip id="veh63" depart="136.11" from="-444806104#1" to="368096547#3" departLane="best" type="veh_passenger" departSpeed="max"/>
    <trip id="veh64" depart="138.27" from="516511594#1" to="-109505207#0" departLane="best" type="veh_passenger"/>
    <trip id="veh65" depart="140.43" from="-615037285" to="258226055#4" departLane="best" type="veh_passenger"/>
    <trip id="veh66" depart="142.59" from="-444798085#1" to="-310912789" departLane="best" type="veh_passenger"/>
    <trip id="veh67" depart="144.75" from="-368096547#3" to="-1121692938#1" departLane="best" type="veh_passenger" departSpeed="max"/>
    <trip id="veh68" depart="146.91" from="-33196780#1" to="-977815033" departLane="best" type="veh_passenger"/>
    <trip id="veh69" depart="149.07" from="241697914" to="350146688#0" departLane="best" type="veh_passenger"/>
    <trip id="veh70" depart="151.23" from="-615037268#6" to="-310912789" departLane="best" type="veh_passenger"/>
    <trip id="veh71" depart="153.39" from="617142814#1" to="340934820#4" departLane="best" type="veh_passenger"/>
    <trip id="veh72" depart="155.55" from="368104091#0" to="368096547#0" departLane="best" type="veh_passenger"/>
    <trip id="veh73" depart="157.71" from="-628456652#1" to="33197140#3" departLane="best" type="veh_passenger" departSpeed="max"/>
    <trip id="veh74" depart="159.87" from="-620204986#1" to="359450390" departLane="best" type="veh_passenger" departSpeed="max"/>
    <trip id="veh75" depart="162.03" from="586557574#1" to="-116690479#0" departLane="best" type="veh_passenger"/>
    <trip id="veh76" depart="164.19" from="586339379" to="-282840326" departLane="best" type="veh_passenger"/>
    <trip id="veh77" depart="166.35" from="-1118659370#0" to="-258136096#0" departLane="best" type="veh_passenger"/>
    <trip id="veh78" depart="168.51" from="292749337#1" to="586664247#1" departLane="best" type="veh_passenger"/>
    <trip id="veh79" depart="170.67" from="628504017#3" to="-33836187#1" departLane="best" type="veh_passenger"/>
    <trip id="veh80" depart="172.83" from="204122958#2" to="630358350#4" departLane="best" type="veh_passenger"/>
    <trip id="veh81" depart="174.99" from="615037268#5" to="586557577#2" departLane="best" type="veh_passenger"/>
    <trip id="veh82" depart="177.15" from="-579914859" to="-586314122#5" departLane="best" type="veh_passenger" departSpeed="max"/>
    <trip id="veh83" depart="179.31" from="-33836187#5" to="-579914857#0" departLane="best" type="veh_passenger"/>
    <trip id="veh84" depart="181.47" from="116690479#1" to="586366254#1" departLane="best" type="veh_passenger"/>
    <trip id="veh85" depart="183.63" from="364177895#2" to="-350146685#1" departLane="best" type="veh_passenger"/>
    <trip id="veh86" depart="185.80" from="-367762382#1" to="1309954073" departLane="best" type="veh_passenger"/>
    <trip id="veh87" depart="187.96" from="586326406#3" to="368096546#1" departLane="best" type="veh_passenger"/>
    <trip id="veh88" depart="190.12" from="615037254" to="230283481#1" departLane="best" type="veh_passenger"/>
    <trip id="veh89" depart="192.28" from="586367055#3" to="-586319513" departLane="best" type="veh_passenger"/>
    <trip id="veh90" depart="194.44" from="-368104091#1" to="586595145" departLane="best" type="veh_passenger"/>
    <trip id="veh91" depart="196.60" from="232725195#2" to="350146691#1" departLane="best" type="veh_passenger"/>
    <trip id="veh92" depart="198.76" from="-359450382#3" to="-230183356#0" departLane="best" type="veh_passenger"/>
    <trip id="veh93" depart="200.92" from="-515235348#1" to="1118659366" departLane="best" type="veh_passenger"/>
    <trip id="veh94" depart="203.08" from="-154091491" to="-586314120" departLane="best" type="veh_passenger"/>
    <trip id="veh95" depart="205.24" from="630358621#0" to="1121692938#2" departLane="best" type="veh_passenger"/>
    <trip id="veh96" depart="207.40" from="-1043469298#1" to="586367055#3" departLane="best" type="veh_passenger" departSpeed="max"/>
    <trip id="veh97" depart="209.56" from="-614635708" to="-350146688#1" departLane="best" type="veh_passenger"/>
    <trip id="veh98" depart="211.72" from="362714491" to="362871968#0" departLane="best" type="veh_passenger"/>
    <trip id="veh99" depart="213.88" from="-628504018#0" to="444477816#1" departLane="best" type="veh_passenger"/>
    <trip id="veh100" depart="216.04" from="232778101#2" to="-109505207#0" departLane="best" type="veh_passenger"/>
    <trip id="veh101" depart="218.20" from="-631863278#1" to="362871968#3" departLane="best" type="veh_passenger"/>
    <trip id="veh102" depart="220.36" from="630358621#0" to="-340934820#5" departLane="best" type="veh_passenger"/>
    <trip id="veh103" depart="222.52" from="586367049#0" to="230183335" departLane="best" type="veh_passenger"/>
    <trip id="veh104" depart="224.68" from="630358621#3" to="-253581894#3" departLane="best" type="veh_passenger"/>
    <trip id="veh105" depart="226.84" from="109565734" to="-338769951#3" departLane="best" type="veh_passenger" departSpeed="max"/>
    <trip id="veh106" depart="229.00" from="-586319363#1" to="615037281" departLane="best" type="veh_passenger"/>
    <trip id="veh107" depart="231.16" from="258325389#0" to="-630358350#0" departLane="best" type="veh_passenger"/>
    <trip id="veh108" depart="233.32" from="739723515#1" to="-230244699#0" departLane="best" type="veh_passenger"/>
    <trip id="veh109" depart="235.48" from="-1121692938#2" to="569991741#0" departLane="best" type="veh_passenger" departSpeed="max"/>
    <trip id="veh110" depart="237.64" from="282891298#0" to="586592650#1" departLane="best" type="veh_passenger"/>
    <trip id="veh111" depart="239.81" from="232778101#1" to="630358621#0" departLane="best" type="veh_passenger"/>
    <trip id="veh112" depart="241.97" from="-630358350#0" to="-444805127#0" departLane="best" type="veh_passenger"/>
    <trip id="veh113" depart="244.13" from="-1369976043" to="-109565746#0" departLane="best" type="veh_passenger" departSpeed="max"/>
    <trip id="veh114" depart="246.29" from="-1117713207#1" to="515235348#3" departLane="best" type="veh_passenger"/>
    <trip id="veh115" depart="248.45" from="362714493#0" to="-260062648" departLane="best" type="veh_passenger"/>
    <trip id="veh116" depart="250.61" from="586366254#1" to="586313403#1" departLane="best" type="veh_passenger"/>
    <trip id="veh117" depart="252.77" from="359450387#1" to="292764136" departLane="best" type="veh_passenger"/>
    <trip id="veh118" depart="254.93" from="337012258#1" to="362871972#1" departLane="best" type="veh_passenger"/>
    <trip id="veh119" depart="257.09" from="628504017#4" to="890146631#1" departLane="best" type="veh_passenger"/>
    <trip id="veh120" depart="259.25" from="258325392#1" to="-260062647#3" departLane="best" type="veh_passenger"/>
    <trip id="veh121" depart="261.41" from="258226062" to="628456652#1" departLane="best" type="veh_passenger"/>
    <trip id="veh122" depart="263.57" from="-444761094#0" to="-568955932" departLane="best" type="veh_passenger"/>
    <trip id="veh123" depart="265.73" from="-586373149#5" to="-444806099#1" departLane="best" type="veh_passenger"/>
    <trip id="veh124" depart="267.89" from="586556425" to="258226055#4" departLane="best" type="veh_passenger"/>
    <trip id="veh125" depart="270.05" from="-258226055#5" to="232778101#3" departLane="best" type="veh_passenger"/>
    <trip id="veh126" depart="272.21" from="444477814#0" to="-1324287528#2" departLane="best" type="veh_passenger" departSpeed="max"/>
    <trip id="veh127" depart="274.37" from="-368190050#0" to="-1118659371" departLane="best" type="veh_passenger"/>
    <trip id="veh128" depart="276.53" from="444477814#0" to="1049377330#1" departLane="best" type="veh_passenger" departSpeed="max"/>
    <trip id="veh129" depart="278.69" from="-109505208#4" to="-555601438#0" departLane="best" type="veh_passenger"/>
    <trip id="veh130" depart="280.85" from="-368104071#4" to="282891298#3" departLane="best" type="veh_passenger" departSpeed="max"/>
    <trip id="veh131" depart="283.01" from="-628812311#6" to="-230183341#0" departLane="best" type="veh_passenger"/>
    <trip id="veh132" depart="285.17" from="-628812311#10" to="340934820#7" departLane="best" type="veh_passenger"/>
    <trip id="veh133" depart="287.33" from="258656153#1" to="312614640#2" departLane="best" type="veh_passenger"/>
    <trip id="veh134" depart="289.49" from="-340934820#0" to="-230218149#0" departLane="best" type="veh_passenger"/>
    <trip id="veh135" depart="291.65" from="579914855#0" to="444761097#1" departLane="best" type="veh_passenger" departSpeed="max"/>
    <trip id="veh136" depart="293.82" from="-615037268#2" to="515235349#0" departLane="best" type="veh_passenger"/>
    <trip id="veh137" depart="295.98" from="615037303" to="1312476769#1" departLane="best" type="veh_passenger"/>
    <trip id="veh138" depart="298.14" from="340934820#5" to="898487480#0" departLane="best" type="veh_passenger"/>
    <trip id="veh139" depart="300.30" from="232725196" to="-515235346#0" departLane="best" type="veh_passenger" departSpeed="max"/>
    <trip id="veh140" depart="302.46" from="674857908#1" to="362871972#2" departLane="best" type="veh_passenger"/>
    <trip id="veh141" depart="304.62" from="-628812311#1" to="-586314122#5" departLane="best" type="veh_passenger"/>
    <trip id="veh142" depart="306.78" from="-116690479#3" to="-258226050#1" departLane="best" type="veh_passenger"/>
    <trip id="veh143" depart="308.94" from="888879165#2" to="282840323#0" departLane="best" type="veh_passenger"/>
    <trip id="veh144" depart="311.10" from="586319362#2" to="-515235348#0" departLane="best" type="veh_passenger"/>
    <trip id="veh145" depart="313.26" from="586594758#0" to="444475429#3" departLane="best" type="veh_passenger"/>
    <trip id="veh146" depart="315.42" from="615037250#0" to="230218154#1" departLane="best" type="veh_passenger"/>
    <trip id="veh147" depart="317.58" from="616824387#1" to="282891298#2" departLane="best" type="veh_passenger"/>
    <trip id="veh148" depart="319.74" from="-337540076#0" to="615037319#1" departLane="best" type="veh_passenger"/>
    <trip id="veh149" depart="321.90" from="-614635708" to="628504017#1" departLane="best" type="veh_passenger"/>
    <trip id="veh150" depart="324.06" from="282840325#0" to="1049377330#1" departLane="best" type="veh_passenger"/>
    <trip id="veh151" depart="326.22" from="258226050#0" to="-631906581" departLane="best" type="veh_passenger" departSpeed="max"/>
    <trip id="veh152" depart="328.38" from="-258226029#0" to="-230218154#2" departLane="best" type="veh_passenger"/>
    <trip id="veh153" depart="330.54" from="-258226055#3" to="615037309#0" departLane="best" type="veh_passenger"/>
    <trip id="veh154" depart="332.70" from="-704235784#0" to="-124893290#0" departLane="best" type="veh_passenger"/>
    <trip id="veh155" depart="334.86" from="362714489" to="616824387#5" departLane="best" type="veh_passenger" departSpeed="max"/>
    <trip id="veh156" depart="337.02" from="-704235786#0" to="674858061" departLane="best" type="veh_passenger"/>
    <trip id="veh157" depart="339.18" from="-109505207#4" to="-33836187#3" departLane="best" type="veh_passenger"/>
    <trip id="veh158" depart="341.34" from="232725196" to="359450382#4" departLane="best" type="veh_passenger" departSpeed="max"/>
    <trip id="veh159" depart="343.50" from="1312476767#1" to="586319363#2" departLane="best" type="veh_passenger"/>
    <trip id="veh160" depart="345.67" from="260062647#3" to="-1009076936" departLane="best" type="veh_passenger"/>
    <trip id="veh161" depart="347.83" from="1117713203#0" to="350146691#1" departLane="best" type="veh_passenger"/>
    <trip id="veh162" depart="349.99" from="362714495#1" to="1369976043" departLane="best" type="veh_passenger"/>
    <trip id="veh163" depart="352.15" from="898487480#1" to="674857908#1" departLane="best" type="veh_passenger"/>
    <trip id="veh164" depart="354.31" from="154091488#1" to="1118659366" departLane="best" type="veh_passenger"/>
    <trip id="veh165" depart="356.47" from="-258226062" to="-586373149#7" departLane="best" type="veh_passenger"/>
    <trip id="veh166" depart="358.63" from="1194712200" to="556909867#1" departLane="best" type="veh_passenger"/>
    <trip id="veh167" depart="360.79" from="-282841465#1" to="340934820#7" departLane="best" type="veh_passenger"/>
    <trip id="veh168" depart="362.95" from="109505207#4" to="579914859" departLane="best" type="veh_passenger"/>
    <trip id="veh169" depart="365.11" from="368104091#4" to="-368096544#3" departLane="best" type="veh_passenger"/>
    <trip id="veh170" depart="367.27" from="444805124#1" to="-631904730" departLane="best" type="veh_passenger"/>
    <trip id="veh171" depart="369.43" from="586574694#0" to="-116690480#1" departLane="best" type="veh_passenger"/>
    <trip id="veh172" depart="371.59" from="-615037318#0" to="241697931#2" departLane="best" type="veh_passenger"/>
    <trip id="veh173" depart="373.75" from="-586659413" to="-898487481#1" departLane="best" type="veh_passenger" departSpeed="max"/>
    <trip id="veh174" depart="375.91" from="33196780#2" to="-515235345#1" departLane="best" type="veh_passenger"/>
    <trip id="veh175" depart="378.07" from="586659717" to="-586323859" departLane="best" type="veh_passenger"/>
    <trip id="veh176" depart="380.23" from="444475977" to="704235786#1" departLane="best" type="veh_passenger" departSpeed="max"/>
    <trip id="veh177" depart="382.39" from="-258325414#1" to="615037259#1" departLane="best" type="veh_passenger"/>
    <trip id="veh178" depart="384.55" from="-362871971" to="1312476767#0" departLane="best" type="veh_passenger"/>
    <trip id="veh179" depart="386.71" from="-292749268#0" to="628812311#2" departLane="best" type="veh_passenger"/>
    <trip id="veh180" depart="388.87" from="-615037283" to="232778104#1" departLane="best" type="veh_passenger"/>
    <trip id="veh181" depart="391.03" from="880026447" to="-337540062#1" departLane="best" type="veh_passenger"/>
    <trip id="veh182" depart="393.19" from="-258226029#0" to="368104071#4" departLane="best" type="veh_passenger"/>
    <trip id="veh183" depart="395.35" from="-586314122#0" to="-109565746#1" departLane="best" type="veh_passenger"/>
    <trip id="veh184" depart="397.51" from="629067608#0" to="232778101#1" departLane="best" type="veh_passenger"/>
    <trip id="veh185" depart="399.68" from="-1369976043" to="555600351#1" departLane="best" type="veh_passenger" departSpeed="max"/>
    <trip id="veh186" depart="401.84" from="-568955931#2" to="615037268#3" departLane="best" type="veh_passenger" departSpeed="max"/>
    <trip id="veh187" depart="404.00" from="629067608#1" to="850677551#1" departLane="best" type="veh_passenger"/>
    <trip id="veh188" depart="406.16" from="-444477816#1" to="-631906581" departLane="best" type="veh_passenger" departSpeed="max"/>
    <trip id="veh189" depart="408.32" from="586657906#2" to="586556424#2" departLane="best" type="veh_passenger"/>
    <trip id="veh190" depart="410.48" from="630358350#4" to="-258226029#1" departLane="best" type="veh_passenger"/>
    <trip id="veh191" depart="412.64" from="586595146#0" to="368096546#0" departLane="best" type="veh_passenger"/>
    <trip id="veh192" depart="414.80" from="1312476755#0" to="367762382#2" departLane="best" type="veh_passenger"/>
    <trip id="veh193" depart="416.96" from="230183337#1" to="586594758#0" departLane="best" type="veh_passenger"/>
    <trip id="veh194" depart="419.12" from="-340934813#0" to="312614641" departLane="best" type="veh_passenger"/>
    <trip id="veh195" depart="421.28" from="-615037318#0" to="-615037268#4" departLane="best" type="veh_passenger"/>
    <trip id="veh196" depart="423.44" from="-258325389#0" to="362871970#3" departLane="best" type="veh_passenger"/>
    <trip id="veh197" depart="425.60" from="212414966" to="312614641" departLane="best" type="veh_passenger" departSpeed="max"/>
    <trip id="veh198" depart="427.76" from="586339378#1" to="898487479#0" departLane="best" type="veh_passenger"/>
    <trip id="veh199" depart="429.92" from="1117713203#1" to="555600348#0" departLane="best" type="veh_passenger"/>
    <trip id="veh200" depart="432.08" from="586556424#2" to="586657906#1" departLane="best" type="veh_passenger"/>
    <trip id="veh201" depart="434.24" from="368096544#1" to="-444805127#0" departLane="best" type="veh_passenger"/>
    <trip id="veh202" depart="436.40" from="586556424#3" to="282840323#4" departLane="best" type="veh_passenger"/>
    <trip id="veh203" depart="438.56" from="555600351#0" to="516511594#2" departLane="best" type="veh_passenger" departSpeed="max"/>
    <trip id="veh204" depart="440.72" from="-444477816#1" to="-253581892" departLane="best" type="veh_passenger" departSpeed="max"/>
    <trip id="veh205" depart="442.88" from="586319513" to="362871968#2" departLane="best" type="veh_passenger" departSpeed="max"/>
    <trip id="veh206" depart="445.04" from="-1118659370#1" to="-230218169" departLane="best" type="veh_passenger"/>
    <trip id="veh207" depart="447.20" from="1324287528#2" to="359450388" departLane="best" type="veh_passenger"/>
    <trip id="veh208" depart="449.36" from="-33197140#2" to="368104071#4" departLane="best" type="veh_passenger"/>
    <trip id="veh209" depart="451.53" from="-631920552#3" to="359450386#1" departLane="best" type="veh_passenger"/>
    <trip id="veh210" depart="453.69" from="-586370369" to="-444806103" departLane="best" type="veh_passenger"/>
    <trip id="veh211" depart="455.85" from="-33836187#2" to="368096545#1" departLane="best" type="veh_passenger"/>
    <trip id="veh212" depart="458.01" from="359450380#1" to="-241697930" departLane="best" type="veh_passenger"/>
    <trip id="veh213" depart="460.17" from="-282840328" to="586594759#0" departLane="best" type="veh_passenger"/>
    <trip id="veh214" depart="462.33" from="-586319747#0" to="628812311#3" departLane="best" type="veh_passenger"/>
    <trip id="veh215" depart="464.49" from="886398469#0" to="586373445#1" departLane="best" type="veh_passenger"/>
    <trip id="veh216" depart="466.65" from="-337540065" to="-258325416#1" departLane="best" type="veh_passenger"/>
    <trip id="veh217" depart="468.81" from="-586574698#0" to="-555601518" departLane="best" type="veh_passenger"/>
    <trip id="veh218" depart="470.97" from="-204122958#1" to="444805121#2" departLane="best" type="veh_passenger"/>
    <trip id="veh219" depart="473.13" from="-230283481#1" to="-586326406#4" departLane="best" type="veh_passenger"/>
    <trip id="veh220" depart="475.29" from="444477816#0" to="555600865" departLane="best" type="veh_passenger" departSpeed="max"/>
    <trip id="veh221" depart="477.45" from="586329031" to="-444806104#0" departLane="best" type="veh_passenger"/>
    <trip id="veh222" depart="479.61" from="-359450380#1" to="33836187#3" departLane="best" type="veh_passenger"/>
    <trip id="veh223" depart="481.77" from="586373149#2" to="515235349#4" departLane="best" type="veh_passenger"/>
    <trip id="veh224" depart="483.93" from="444806104#0" to="615037319#1" departLane="best" type="veh_passenger" departSpeed="max"/>
    <trip id="veh225" depart="486.09" from="341096505" to="-337012258#0" departLane="best" type="veh_passenger"/>
    <trip id="veh226" depart="488.25" from="586557577#2" to="-227131720#0" departLane="best" type="veh_passenger"/>
    <trip id="veh227" depart="490.41" from="-109505207#2" to="-586373149#4" departLane="best" type="veh_passenger"/>
    <trip id="veh228" depart="492.57" from="516511594#2" to="1118659370#1" departLane="best" type="veh_passenger"/>
    <trip id="veh229" depart="494.73" from="33195669" to="109565746#1" departLane="best" type="veh_passenger" departSpeed="max"/>
    <trip id="veh230" depart="496.89" from="615037287" to="337540076#3" departLane="best" type="veh_passenger"/>
    <trip id="veh231" depart="499.05" from="-898487481#1" to="629067609#2" departLane="best" type="veh_passenger"/>
    <trip id="veh232" depart="501.21" from="704235788" to="-230244707" departLane="best" type="veh_passenger"/>
    <trip id="veh233" depart="503.37" from="615037250#1" to="1312476755#1" departLane="best" type="veh_passenger"/>
    <trip id="veh234" depart="505.54" from="232725196" to="615037267" departLane="best" type="veh_passenger" departSpeed="max"/>
    <trip id="veh235" depart="507.70" from="1324287528#1" to="1118659370#2" departLane="best" type="veh_passenger"/>
    <trip id="veh236" depart="509.86" from="-568955931#2" to="367762382#3" departLane="best" type="veh_passenger" departSpeed="max"/>
    <trip id="veh237" depart="512.02" from="515235345#1" to="362871972#0" departLane="best" type="veh_passenger"/>
    <trip id="veh238" depart="514.18" from="-340934820#0" to="615037255" departLane="best" type="veh_passenger"/>
    <trip id="veh239" depart="516.34" from="232766712" to="-282840323#0" departLane="best" type="veh_passenger" departSpeed="max"/>
    <trip id="veh240" depart="518.50" from="-444477816#1" to="-282891298#2" departLane="best" type="veh_passenger" departSpeed="max"/>
    <trip id="veh241" depart="520.66" from="-337540069#1" to="232778104#1" departLane="best" type="veh_passenger"/>
    <trip id="veh242" depart="522.82" from="880026447" to="898487480#1" departLane="best" type="veh_passenger"/>