<?xml version="1.0" encoding="UTF-8"?>

<!-- generated on 2025-08-11 19:32:38.109281 by osmWebWizard.py UNKNOWN
<configuration>
    <net-file value="/home/sour/Sumo/2025-08-11-19-32-20/osm.net.xml.gz"/>
    <output-trip-file value="/home/sour/Sumo/2025-08-11-19-32-20/osm.motorcycle.trips.xml"/>
    <route-file value="/home/sour/Sumo/2025-08-11-19-32-20/osm.motorcycle.rou.xml"/>
    <prefix value="motorcycle"/>
    <trip-attributes value="departLane=&quot;best&quot;"/>
    <fringe-start-attributes value="departSpeed=&quot;max&quot;"/>
    <vehicle-class value="motorcycle"/>
    <fringe-factor value="5"/>
    <edge-permission value="motorcycle"/>
    <via-edge-types value="highway.motorway,highway.motorway_link,highway.trunk_link,highway.primary_link,highway.secondary_link,highway.tertiary_link"/>
    <seed value="43"/>
    <max-distance value="1200.0"/>
    <remove-loops value="True"/>
    <insertion-density value="200.0"/>
</configuration>
-->

<routes xmlns:xsi="http://www.w3.org/2001/XMLSchema-instance" xsi:noNamespaceSchemaLocation="http://sumo.dlr.de/xsd/routes_file.xsd">
    <vType id="motorcycle_motorcycle" vClass="motorcycle"/>
    <trip id="motorcycle0" depart="0.00" from="-1117713207#1" to="367707574#1" departLane="best" type="motorcycle_motorcycle"/>
    <trip id="motorcycle1" depart="0.35" from="-341456563" to="103765643#0" departLane="best" type="motorcycle_motorcycle" departSpeed="max"/>
    <trip id="motorcycle2" depart="0.71" from="34990515#1" to="459934830#0" departLane="best" type="motorcycle_motorcycle"/>
    <trip id="motorcycle3" depart="1.06" from="-977815033#1" to="116690479#0" departLane="best" type="motorcycle_motorcycle"/>
    <trip id="motorcycle4" depart="1.41" from="-620772305#1" to="587218913" departLane="best" type="motorcycle_motorcycle"/>
    <trip id="motorcycle5" depart="1.77" from="1408953126#0" to="368209083" departLane="best" type="motorcycle_motorcycle" departSpeed="max"/>
    <trip id="motorcycle6" depart="2.12" from="-795671604#3" to="-341456542" departLane="best" type="motorcycle_motorcycle"/>
    <trip id="motorcycle7" depart="2.47" from="586657908#3" to="586657042#0" departLane="best" type="motorcycle_motorcycle"/>
    <trip id="motorcycle8" depart="2.83" from="-620775234#2" to="-323987231#0" departLane="best" type="motorcycle_motorcycle" departSpeed="max"/>
    <trip id="motorcycle9" depart="3.18" from="-336988370#1" to="587800915#2" departLane="best" type="motorcycle_motorcycle"/>
    <trip id="motorcycle10" depart="3.53" from="323987231#0" to="620862579" departLane="best" type="motorcycle_motorcycle" departSpeed="max"/>
    <trip id="motorcycle11" depart="3.89" from="350146685#1" to="-323987231#0" departLane="best" type="motorcycle_motorcycle"/>
    <trip id="motorcycle12" depart="4.24" from="337132072#3" to="444826919#2" departLane="best" type="motorcycle_motorcycle"/>
    <trip id="motorcycle13" depart="4.59" from="615037323" to="-586659717" departLane="best" type="motorcycle_motorcycle"/>
    <trip id="motorcycle14" depart="4.95" from="1305093056" to="367762382#1" departLane="best" type="motorcycle_motorcycle"/>
    <trip id="motorcycle15" depart="5.30" from="444476598" to="-116690596#1" departLane="best" type="motorcycle_motorcycle" departSpeed="max"/>
    <trip id="motorcycle16" depart="5.65" from="329817169" to="-620775234#1" departLane="best" type="motorcycle_motorcycle" departSpeed="max"/>
    <trip id="motorcycle17" depart="6.01" from="-367194255#2" to="33768805#0" departLane="best" type="motorcycle_motorcycle"/>
    <trip id="motorcycle18" depart="6.36" from="795671604#0" to="227019974#1" departLane="best" type="motorcycle_motorcycle"/>
    <trip id="motorcycle19" depart="6.71" from="367707574#1" to="-116690593#0" departLane="best" type="motorcycle_motorcycle"/>
    <trip id="motorcycle20" depart="7.07" from="739723515#0" to="337540073" departLane="best" type="motorcycle_motorcycle"/>
    <trip id="motorcycle21" depart="7.42" from="-227019974#1" to="-337132049" departLane="best" type="motorcycle_motorcycle" departSpeed="max"/>
    <trip id="motorcycle22" depart="7.77" from="-227019974#1" to="359450383#1" departLane="best" type="motorcycle_motorcycle" departSpeed="max"/>
    <trip id="motorcycle23" depart="8.13" from="-337132072#2" to="226946947" departLane="best" type="motorcycle_motorcycle"/>
    <trip id="motorcycle24" depart="8.48" from="-850677551#1" to="-116690480#0" departLane="best" type="motorcycle_motorcycle"/>
    <trip id="motorcycle25" depart="8.83" from="-1012133718#2" to="620768869#3" departLane="best" type="motorcycle_motorcycle"/>
    <trip id="motorcycle26" depart="9.19" from="368096544#1" to="898487482" departLane="best" type="motorcycle_motorcycle"/>
    <trip id="motorcycle27" depart="9.54" from="620766627" to="620764795" departLane="best" type="motorcycle_motorcycle" departSpeed="max"/>
    <trip id="motorcycle28" depart="9.89" from="-587793740" to="368096544#1" departLane="best" type="motorcycle_motorcycle" departSpeed="max"/>
    <trip id="motorcycle29" depart="10.25" from="367194255#2" to="586664246#1" departLane="best" type="motorcycle_motorcycle"/>
    <trip id="motorcycle30" depart="10.60" from="367700934#2" to="-323987231#0" departLane="best" type="motorcycle_motorcycle"/>
    <trip id="motorcycle31" depart="10.95" from="-367707574#1" to="620865939" departLane="best" type="motorcycle_motorcycle"/>
    <trip id="motorcycle32" depart="11.31" from="-620870374" to="367700883#2" departLane="best" type="motorcycle_motorcycle"/>
    <trip id="motorcycle33" depart="11.66" from="292749336#4" to="-368104071#1" departLane="best" type="motorcycle_motorcycle"/>
    <trip id="motorcycle34" depart="12.01" from="323987231#1" to="620775234#2" departLane="best" type="motorcycle_motorcycle"/>
    <trip id="motorcycle35" depart="12.37" from="-586659718" to="-615037321" departLane="best" type="motorcycle_motorcycle"/>
    <trip id="motorcycle36" depart="12.72" from="-367194255#2" to="-34990514#0" departLane="best" type="motorcycle_motorcycle"/>
    <trip id="motorcycle37" depart="13.07" from="644261214" to="362871972#2" departLane="best" type="motorcycle_motorcycle"/>
    <trip id="motorcycle38" depart="13.43" from="-367194255#4" to="-367707574#1" departLane="best" type="motorcycle_motorcycle"/>
    <trip id="motorcycle39" depart="13.78" from="-620862578#1" to="898487482" departLane="best" type="motorcycle_motorcycle"/>
    <trip id="motorcycle40" depart="14.13" from="-1324287528#1" to="-116690479#0" departLane="best" type="motorcycle_motorcycle"/>
    <trip id="motorcycle41" depart="14.49" from="1408953126#0" to="33836788#2" departLane="best" type="motorcycle_motorcycle" departSpeed="max"/>
    <trip id="motorcycle42" depart="14.84" from="586664246#2" to="628456652#1" departLane="best" type="motorcycle_motorcycle"/>
    <trip id="motorcycle43" depart="15.19" from="292749336#6" to="-368104071#4" departLane="best" type="motorcycle_motorcycle"/>
    <trip id="motorcycle44" depart="15.55" from="-33768805#5" to="368286982" departLane="best" type="motorcycle_motorcycle"/>
    <trip id="motorcycle45" depart="15.90" from="364177895#2" to="-336988370#1" departLane="best" type="motorcycle_motorcycle"/>
    <trip id="motorcycle46" depart="16.25" from="-368209083" to="-337132072#1" departLane="best" type="motorcycle_motorcycle" departSpeed="max"/>
    <trip id="motorcycle47" depart="16.61" from="292749336#4" to="367700934#1" departLane="best" type="motorcycle_motorcycle"/>
    <trip id="motorcycle48" depart="16.96" from="-367700934#0" to="-116690593#0" departLane="best" type="motorcycle_motorcycle"/>
    <trip id="motorcycle49" depart="17.31" from="-368286982" to="367762378" departLane="best" type="motorcycle_motorcycle" departSpeed="max"/>
    <trip id="motorcycle50" depart="17.67" from="-368286982" to="34990515#2" departLane="best" type="motorcycle_motorcycle" departSpeed="max"/>
    <trip id="motorcycle51" depart="18.02" from="368027034" to="109505207#0" departLane="best" type="motorcycle_motorcycle"/>
    <trip id="motorcycle52" depart="18.37" from="34990514#0" to="-444826908#2" departLane="best" type="motorcycle_motorcycle"/>
    <trip id="motorcycle53" depart="18.73" from="109505208#1" to="1012133718#0" departLane="best" type="motorcycle_motorcycle"/>
    <trip id="motorcycle54" depart="19.08" from="336988370#1" to="368096545#2" departLane="best" type="motorcycle_motorcycle"/>
    <trip id="motorcycle55" depart="19.43" from="337540075" to="586657042#0" departLane="best" type="motorcycle_motorcycle" departSpeed="max"/>
    <trip id="motorcycle56" depart="19.79" from="368027034" to="1305093055#0" departLane="best" type="motorcycle_motorcycle"/>
    <trip id="motorcycle57" depart="20.14" from="-368104091#6" to="109505208#3" departLane="best" type="motorcycle_motorcycle"/>
    <trip id="motorcycle58" depart="20.49" from="1012133719" to="-444826908#1" departLane="best" type="motorcycle_motorcycle" departSpeed="max"/>
    <trip id="motorcycle59" depart="20.85" from="-587793740" to="-977815033#1" departLane="best" type="motorcycle_motorcycle" departSpeed="max"/>
    <trip id="motorcycle60" depart="21.20" from="-368209083" to="-337132072#4" departLane="best" type="motorcycle_motorcycle" departSpeed="max"/>
    <trip id="motorcycle61" depart="21.55" from="459934830#1" to="-620768869#1" departLane="best" type="motorcycle_motorcycle"/>
    <trip id="motorcycle62" depart="21.91" from="-620768869#1" to="444826919#0" departLane="best" type="motorcycle_motorcycle"/>
    <trip id="motorcycle63" depart="22.26" from="364177895#1" to="1012133718#3" departLane="best" type="motorcycle_motorcycle"/>
    <trip id="motorcycle64" depart="22.61" from="-368096547#2" to="337540069#0" departLane="best" type="motorcycle_motorcycle"/>
    <trip id="motorcycle65" depart="22.97" from="444811599#0" to="-367700934#3" departLane="best" type="motorcycle_motorcycle" departSpeed="max"/>
    <trip id="motorcycle66" depart="23.32" from="620768869#0" to="-368104071#2" departLane="best" type="motorcycle_motorcycle"/>
    <trip id="motorcycle67" depart="23.67" from="-367194255#2" to="-368096547#0" departLane="best" type="motorcycle_motorcycle"/>
    <trip id="motorcycle68" depart="24.03" from="587800918#5" to="586661204" departLane="best" type="motorcycle_motorcycle"/>
    <trip id="motorcycle69" depart="24.38" from="116690596#0" to="-337132072#1" departLane="best" type="motorcycle_motorcycle" departSpeed="max"/>
    <trip id="motorcycle70" depart="24.73" from="368104071#4" to="-368096547#0" departLane="best" type="motorcycle_motorcycle"/>
    <trip id="motorcycle71" depart="25.09" from="-341456566" to="367700934#1" departLane="best" type="motorcycle_motorcycle" departSpeed="max"/>
    <trip id="motorcycle72" depart="25.44" from="-795671604#7" to="103759573" departLane="best" type="motorcycle_motorcycle"/>
    <trip id="motorcycle73" depart="25.79" from="109505204#0" to="34990516#0" departLane="best" type="motorcycle_motorcycle"/>
    <trip id="motorcycle74" depart="26.15" from="1117713207#0" to="555601518" departLane="best" type="motorcycle_motorcycle"/>
    <trip id="motorcycle75" depart="26.50" from="-444826908#3" to="362871972#0" departLane="best" type="motorcycle_motorcycle"/>
    <trip id="motorcycle76" depart="26.85" from="-367707574#1" to="367762378" departLane="best" type="motorcycle_motorcycle"/>
    <trip id="motorcycle77" depart="27.21" from="109505208#0" to="628456652#1" departLane="best" type="motorcycle_motorcycle"/>
    <trip id="motorcycle78" depart="27.56" from="615037319#0" to="586659413" departLane="best" type="motorcycle_motorcycle"/>
    <trip id="motorcycle79" depart="27.91" from="-367707574#0" to="587800915#2" departLane="best" type="motorcycle_motorcycle"/>
    <trip id="motorcycle80" depart="28.26" from="337540069#1" to="-227131720#0" departLane="best" type="motorcycle_motorcycle"/>
    <trip id="motorcycle81" depart="28.62" from="-337132072#4" to="-459934830#0" departLane="best" type="motorcycle_motorcycle"/>
    <trip id="motorcycle82" depart="28.97" from="33973140#3" to="-367762382#4" departLane="best" type="motorcycle_motorcycle"/>
    <trip id="motorcycle83" depart="29.32" from="-444811602" to="33768805#3" departLane="best" type="motorcycle_motorcycle" departSpeed="max"/>
    <trip id="motorcycle84" depart="29.68" from="444811599#0" to="341456563" departLane="best" type="motorcycle_motorcycle" departSpeed="max"/>
    <trip id="motorcycle85" depart="30.03" from="-621949168#5" to="341456563" departLane="best" type="motorcycle_motorcycle"/>
    <trip id="motorcycle86" depart="30.38" from="586595416" to="109505208#2" departLane="best" type="motorcycle_motorcycle" departSpeed="max"/>
    <trip id="motorcycle87" depart="30.74" from="292749336#6" to="380090117#0" departLane="best" type="motorcycle_motorcycle"/>
    <trip id="motorcycle88" depart="31.09" from="-337132072#5" to="1012133718#0" departLane="best" type="motorcycle_motorcycle"/>
    <trip id="motorcycle89" depart="31.44" from="337540063#0" to="-368096545#4" departLane="best" type="motorcycle_motorcycle"/>
    <trip id="motorcycle90" depart="31.80" from="362714491" to="116690479#3" departLane="best" type="motorcycle_motorcycle"/>
    <trip id="motorcycle91" depart="32.15" from="1305093054" to="-368027027#0" departLane="best" type="motorcycle_motorcycle"/>
    <trip id="motorcycle92" depart="32.50" from="368104091#3" to="-109505204#0" departLane="best" type="motorcycle_motorcycle"/>
    <trip id="motorcycle93" depart="32.86" from="1304287974" to="-1408953126#0" departLane="best" type="motorcycle_motorcycle"/>
    <trip id="motorcycle94" depart="33.21" from="350146685#1" to="-367194255#2" departLane="best" type="motorcycle_motorcycle"/>
    <trip id="motorcycle95" depart="33.56" from="33973140#3" to="227100507#0" departLane="best" type="motorcycle_motorcycle"/>
    <trip id="motorcycle96" depart="33.92" from="898487493" to="-620768869#0" departLane="best" type="motorcycle_motorcycle"/>
    <trip id="motorcycle97" depart="34.27" from="615037303" to="-555600351#0" departLane="best" type="motorcycle_motorcycle" departSpeed="max"/>
    <trip id="motorcycle98" depart="34.62" from="-444811602" to="-795671604#5" departLane="best" type="motorcycle_motorcycle" departSpeed="max"/>
    <trip id="motorcycle99" depart="34.98" from="-109505204#0" to="368096545#2" departLane="best" type="motorcycle_motorcycle"/>
    <trip id="motorcycle100" depart="35.33" from="-227100505#0" to="33836788#2" departLane="best" type="motorcycle_motorcycle"/>
    <trip id="motorcycle101" depart="35.68" from="-1305093056" to="-795671604#6" departLane="best" type="motorcycle_motorcycle"/>
    <trip id="motorcycle102" depart="36.04" from="-462987552#1" to="-620768866#0" departLane="best" type="motorcycle_motorcycle"/>
    <trip id="motorcycle103" depart="36.39" from="33768805#1" to="-444826919#1" departLane="best" type="motorcycle_motorcycle"/>
    <trip id="motorcycle104" depart="36.74" from="-444811602" to="-331675474" departLane="best" type="motorcycle_motorcycle" departSpeed="max"/>
    <trip id="motorcycle105" depart="37.10" from="-620768866#1" to="640708032#1" departLane="best" type="motorcycle_motorcycle" departSpeed="max"/>
    <trip id="motorcycle106" depart="37.45" from="-795671604#2" to="-341096510#0" departLane="best" type="motorcycle_motorcycle"/>
    <trip id="motorcycle107" depart="37.80" from="34990514#2" to="368096545#0" departLane="best" type="motorcycle_motorcycle"/>
    <trip id="motorcycle108" depart="38.16" from="-336988370#1" to="-555600351#0" departLane="best" type="motorcycle_motorcycle"/>
    <trip id="motorcycle109" depart="38.51" from="-444826919#0" to="462987550" departLane="best" type="motorcycle_motorcycle"/>
    <trip id="motorcycle110" depart="38.86" from="337132054" to="1222974661" departLane="best" type="motorcycle_motorcycle"/>
    <trip id="motorcycle111" depart="39.22" from="-795671604#6" to="227019974#1" departLane="best" type="motorcycle_motorcycle"/>
    <trip id="motorcycle112" depart="39.57" from="109505208#2" to="-368096547#2" departLane="best" type="motorcycle_motorcycle"/>
    <trip id="motorcycle113" depart="39.92" from="-620862578#3" to="-620874944" departLane="best" type="motorcycle_motorcycle"/>
    <trip id="motorcycle114" depart="40.28" from="116690596#2" to="1304287973" departLane="best" type="motorcycle_motorcycle"/>
    <trip id="motorcycle115" depart="40.63" from="227019974#0" to="-459934830#0" departLane="best" type="motorcycle_motorcycle"/>
    <trip id="motorcycle116" depart="40.98" from="368027023#0" to="-103765643#3" departLane="best" type="motorcycle_motorcycle"/>
    <trip id="motorcycle117" depart="41.34" from="888879165" to="615037320#2" departLane="best" type="motorcycle_motorcycle"/>
    <trip id="motorcycle118" depart="41.69" from="-977815033#1" to="368104091#2" departLane="best" type="motorcycle_motorcycle"/>
    <trip id="motorcycle119" depart="42.04" from="-368104091#6" to="350146685#1" departLane="best" type="motorcycle_motorcycle"/>
    <trip id="motorcycle120" depart="42.40" from="-368209083" to="-33973140#3" departLane="best" type="motorcycle_motorcycle" departSpeed="max"/>
    <trip id="motorcycle121" depart="42.75" from="-850677551#0" to="116690479#2" departLane="best" type="motorcycle_motorcycle"/>
    <trip id="motorcycle122" depart="43.10" from="-227019974#0" to="620862578#6" departLane="best" type="motorcycle_motorcycle"/>
    <trip id="motorcycle123" depart="43.46" from="329817169" to="368209083" departLane="best" type="motorcycle_motorcycle" departSpeed="max"/>
    <trip id="motorcycle124" depart="43.81" from="-444826908#1" to="-368104091#4" departLane="best" type="motorcycle_motorcycle"/>
    <trip id="motorcycle125" depart="44.16" from="-620862578#6" to="341456563" departLane="best" type="motorcycle_motorcycle" departSpeed="max"/>
    <trip id="motorcycle126" depart="44.52" from="1012133718#3" to="367762378" departLane="best" type="motorcycle_motorcycle"/>
    <trip id="motorcycle127" depart="44.87" from="890146631" to="337540063#0" departLane="best" type="motorcycle_motorcycle"/>
    <trip id="motorcycle128" depart="45.22" from="444826908#3" to="628456652#1" departLane="best" type="motorcycle_motorcycle"/>
    <trip id="motorcycle129" depart="45.58" from="615037322" to="620768866#1" departLane="best" type="motorcycle_motorcycle"/>
    <trip id="motorcycle130" depart="45.93" from="-587793740" to="368096545#4" departLane="best" type="motorcycle_motorcycle" departSpeed="max"/>
    <trip id="motorcycle131" depart="46.28" from="-368104071#0" to="-795671604#7" departLane="best" type="motorcycle_motorcycle"/>
    <trip id="motorcycle132" depart="46.64" from="327075459#0" to="-620849594" departLane="best" type="motorcycle_motorcycle"/>
    <trip id="motorcycle133" depart="46.99" from="-586659413" to="109505208#4" departLane="best" type="motorcycle_motorcycle" departSpeed="max"/>
    <trip id="motorcycle134" depart="47.34" from="-109505207#4" to="898487483#0" departLane="best" type="motorcycle_motorcycle"/>
    <trip id="motorcycle135" depart="47.70" from="323987231#0" to="-116690480#1" departLane="best" type="motorcycle_motorcycle" departSpeed="max"/>
    <trip id="motorcycle136" depart="48.05" from="-1305093056" to="109505204#1" departLane="best" type="motorcycle_motorcycle"/>
    <trip id="motorcycle137" depart="48.40" from="586657041" to="-368027050" departLane="best" type="motorcycle_motorcycle" departSpeed="max"/>
    <trip id="motorcycle138" depart="48.76" from="-33836788#0" to="-1305093054" departLane="best" type="motorcycle_motorcycle"/>
    <trip id="motorcycle139" depart="49.11" from="362871972#3" to="368286982" departLane="best" type="motorcycle_motorcycle"/>
    <trip id="motorcycle140" depart="49.46" from="-644261214" to="-615037323" departLane="best" type="motorcycle_motorcycle"/>
    <trip id="motorcycle141" depart="49.82" from="850677552" to="-368096545#2" departLane="best" type="motorcycle_motorcycle"/>
    <trip id="motorcycle142" depart="50.17" from="444826919#0" to="555600865" departLane="best" type="motorcycle_motorcycle"/>
    <trip id="motorcycle143" depart="50.52" from="-977815033#1" to="444826919#1" departLane="best" type="motorcycle_motorcycle"/>
    <trip id="motorcycle144" depart="50.88" from="586657041" to="364177895#2" departLane="best" type="motorcycle_motorcycle" departSpeed="max"/>
    <trip id="motorcycle145" depart="51.23" from="-620775234#2" to="621949168#2" departLane="best" type="motorcycle_motorcycle" departSpeed="max"/>
    <trip id="motorcycle146" depart="51.58" from="-795671604#4" to="-462987553" departLane="best" type="motorcycle_motorcycle"/>
    <trip id="motorcycle147" depart="51.94" from="-628456652#1" to="292749336#4" departLane="best" type="motorcycle_motorcycle" departSpeed="max"/>
    <trip id="motorcycle148" depart="52.29" from="337132049" to="-116690593#0" departLane="best" type="motorcycle_motorcycle" departSpeed="max"/>
    <trip id="motorcycle149" depart="52.64" from="-795671604#0" to="462987553" departLane="best" type="motorcycle_motorcycle"/>
    <trip id="motorcycle150" depart="53.00" from="444826919#0" to="368104071#4" departLane="best" type="motorcycle_motorcycle"/>
    <trip id="motorcycle151" depart="53.35" from="368027038" to="1222974661" departLane="best" type="motorcycle_motorcycle"/>
    <trip id="motorcycle152" depart="53.70" from="368096545#5" to="-1117713207#1" departLane="best" type="motorcycle_motorcycle"/>
    <trip id="motorcycle153" depart="54.06" from="-368104071#0" to="-109505207#2" departLane="best" type="motorcycle_motorcycle"/>
    <trip id="motorcycle154" depart="54.41" from="-586659718" to="-555600865" departLane="best" type="motorcycle_motorcycle"/>
    <trip id="motorcycle155" depart="54.76" from="341096510#0" to="227100507#1" departLane="best" type="motorcycle_motorcycle" departSpeed="max"/>
    <trip id="motorcycle156" depart="55.12" from="-341096510#0" to="620768869#0" departLane="best" type="motorcycle_motorcycle"/>
    <trip id="motorcycle157" depart="55.47" from="-368096544#3" to="615037320#2" departLane="best" type="motorcycle_motorcycle"/>
    <trip id="motorcycle158" depart="55.82" from="-620862578#1" to="227019974#1" departLane="best" type="motorcycle_motorcycle"/>
    <trip id="motorcycle159" depart="56.18" from="337132049" to="-620768869#2" departLane="best" type="motorcycle_motorcycle" departSpeed="max"/>
    <trip id="motorcycle160" depart="56.53" from="898487493" to="586664246#4" departLane="best" type="motorcycle_motorcycle"/>
    <trip id="motorcycle161" depart="56.88" from="-620768866#1" to="-337132049" departLane="best" type="motorcycle_motorcycle" departSpeed="max"/>
    <trip id="motorcycle162" depart="57.24" from="1309954088" to="103765643#0" departLane="best" type="motorcycle_motorcycle" departSpeed="max"/>
    <trip id="motorcycle163" depart="57.59" from="-850677551#1" to="33768751" departLane="best" type="motorcycle_motorcycle"/>
    <trip id="motorcycle164" depart="57.94" from="-103759573" to="292749336#2" departLane="best" type="motorcycle_motorcycle" departSpeed="max"/>
    <trip id="motorcycle165" depart="58.30" from="-1012133718#1" to="292749336#4" departLane="best" type="motorcycle_motorcycle"/>
    <trip id="motorcycle166" depart="58.65" from="620775234#1" to="367700883#2" departLane="best" type="motorcycle_motorcycle"/>
    <trip id="motorcycle167" depart="59.00" from="116690596#0" to="-620849594" departLane="best" type="motorcycle_motorcycle" departSpeed="max"/>
    <trip id="motorcycle168" depart="59.36" from="-368027023#1" to="103759573" departLane="best" type="motorcycle_motorcycle"/>
    <trip id="motorcycle169" depart="59.71" from="-227100507#0" to="-368096544#2" departLane="best" type="motorcycle_motorcycle"/>
    <trip id="motorcycle170" depart="60.06" from="-368190050#1" to="-227131720#1" departLane="best" type="motorcycle_motorcycle"/>
    <trip id="motorcycle171" depart="60.42" from="-227131720#1" to="586657908#2" departLane="best" type="motorcycle_motorcycle"/>
    <trip id="motorcycle172" depart="60.77" from="-555601438#2" to="364177895#0" departLane="best" type="motorcycle_motorcycle" departSpeed="max"/>
    <trip id="motorcycle173" depart="61.12" from="1012133718#0" to="-116690480#0" departLane="best" type="motorcycle_motorcycle"/>
    <trip id="motorcycle174" depart="61.48" from="-226946947" to="-337132049" departLane="best" type="motorcycle_motorcycle" departSpeed="max"/>
    <trip id="motorcycle175" depart="61.83" from="621949168#4" to="367700883#3" departLane="best" type="motorcycle_motorcycle"/>
    <trip id="motorcycle176" depart="62.18" from="-367762378" to="-116690479#2" departLane="best" type="motorcycle_motorcycle"/>
    <trip id="motorcycle177" depart="62.54" from="615037320#1" to="-586664246#3" departLane="best" type="motorcycle_motorcycle"/>
    <trip id="motorcycle178" depart="62.89" from="335575150" to="795671604#3" departLane="best" type="motorcycle_motorcycle" departSpeed="max"/>
    <trip id="motorcycle179" depart="63.24" from="-367700883#3" to="-368104071#4" departLane="best" type="motorcycle_motorcycle" departSpeed="max"/>
    <trip id="motorcycle180" depart="63.60" from="-587218913" to="-380090117#1" departLane="best" type="motorcycle_motorcycle"/>
    <trip id="motorcycle181" depart="63.95" from="116690480#0" to="-109505208#1" departLane="best" type="motorcycle_motorcycle" departSpeed="max"/>
    <trip id="motorcycle182" depart="64.30" from="462987550" to="977815033#0" departLane="best" type="motorcycle_motorcycle"/>
    <trip id="motorcycle183" depart="64.66" from="-628456652#1" to="587800918#1" departLane="best" type="motorcycle_motorcycle" departSpeed="max"/>
    <trip id="motorcycle184" depart="65.01" from="620869256" to="-368104071#4" departLane="best" type="motorcycle_motorcycle" departSpeed="max"/>
    <trip id="motorcycle185" depart="65.36" from="341096510#1" to="444826919#1" departLane="best" type="motorcycle_motorcycle"/>
    <trip id="motorcycle186" depart="65.72" from="368096544#1" to="555600351#1" departLane="best" type="motorcycle_motorcycle"/>
    <trip id="motorcycle187" depart="66.07" from="-368096545#3" to="555601438#2" departLane="best" type="motorcycle_motorcycle"/>
    <trip id="motorcycle188" depart="66.42" from="368096544#0" to="368096545#5" departLane="best" type="motorcycle_motorcycle"/>
    <trip id="motorcycle189" depart="66.78" from="350146688#3" to="368104071#1" departLane="best" type="motorcycle_motorcycle"/>
    <trip id="motorcycle190" depart="67.13" from="376346459" to="-368027023#1" departLane="best" type="motorcycle_motorcycle" departSpeed="max"/>
    <trip id="motorcycle191" depart="67.48" from="586595416" to="34990516#1" departLane="best" type="motorcycle_motorcycle" departSpeed="max"/>
    <trip id="motorcycle192" depart="67.84" from="795671604#2" to="444811602" departLane="best" type="motorcycle_motorcycle"/>
    <trip id="motorcycle193" depart="68.19" from="-337540063#0" to="-586659717" departLane="best" type="motorcycle_motorcycle"/>
    <trip id="motorcycle194" depart="68.54" from="323987231#0" to="795671604#1" departLane="best" type="motorcycle_motorcycle" departSpeed="max"/>
    <trip id="motorcycle195" depart="68.90" from="586664246#0" to="-555600351#0" departLane="best" type="motorcycle_motorcycle"/>
    <trip id="motorcycle196" depart="69.25" from="-103759573" to="-444476598" departLane="best" type="motorcycle_motorcycle" departSpeed="max"/>
    <trip id="motorcycle197" depart="69.60" from="116690593#0" to="116690596#2" departLane="best" type="motorcycle_motorcycle" departSpeed="max"/>
    <trip id="motorcycle198" depart="69.96" from="367762378" to="-444826919#1" departLane="best" type="motorcycle_motorcycle"/>
    <trip id="motorcycle199" depart="70.31" from="-462987552#1" to="-337132072#0" departLane="best" type="motorcycle_motorcycle"/>
    <trip id="motorcycle200" depart="70.66" from="109505208#1" to="-861783801" departLane="best" type="motorcycle_motorcycle"/>
    <trip id="motorcycle201" depart="71.02" from="-1012133718#4" to="-337132049" departLane="best" type="motorcycle_motorcycle" departSpeed="max"/>
    <trip id="motorcycle202" depart="71.37" from="368096546#0" to="368190050#1" departLane="best" type="motorcycle_motorcycle"/>
    <trip id="motorcycle203" depart="71.72" from="-620862578#1" to="34990514#4" departLane="best" type="motorcycle_motorcycle"/>
    <trip id="motorcycle204" depart="72.08" from="586657041" to="368096547#1" departLane="best" type="motorcycle_motorcycle" departSpeed="max"/>
    <trip id="motorcycle205" depart="72.43" from="292749336#4" to="620768866#1" departLane="best" type="motorcycle_motorcycle"/>
    <trip id="motorcycle206" depart="72.78" from="-1304287974" to="-1012133718#0" departLane="best" type="motorcycle_motorcycle"/>
    <trip id="motorcycle207" depart="73.14" from="-368027023#0" to="116690596#1" departLane="best" type="motorcycle_motorcycle"/>
    <trip id="motorcycle208" depart="73.49" from="368104091#2" to="-555600351#0" departLane="best" type="motorcycle_motorcycle"/>
    <trip id="motorcycle209" depart="73.84" from="-34990514#4" to="640708032#1" departLane="best" type="motorcycle_motorcycle" departSpeed="max"/>
    <trip id="motorcycle210" depart="74.20" from="350146688#2" to="-555600351#0" departLane="best" type="motorcycle_motorcycle"/>
    <trip id="motorcycle211" depart="74.55" from="-109505204#0" to="-109505207#0" departLane="best" type="motorcycle_motorcycle"/>
    <trip id="motorcycle212" depart="74.90" from="-341456563" to="-620772305#1" departLane="best" type="motorcycle_motorcycle" departSpeed="max"/>
    <trip id="motorcycle213" depart="75.26" from="1305093055#0" to="368190050#1" departLane="best" type="motorcycle_motorcycle"/>
    <trip id="motorcycle214" depart="75.61" from="621949168#1" to="620865939" departLane="best" type="motorcycle_motorcycle"/>
    <trip id="motorcycle215" depart="75.96" from="586657041" to="587800918#5" departLane="best" type="motorcycle_motorcycle" departSpeed="max"/>