<?xml version="1.0" encoding="UTF-8"?>

<!-- generated on 2025-10-25 16:58:03 by Eclipse SUMO netedit Version 1.24.0
<neteditConfiguration xmlns:xsi="http://www.w3.org/2001/XMLSchema-instance" xsi:noNamespaceSchemaLocation="http://sumo.dlr.de/xsd/neteditConfiguration.xsd">

    <input>
        <sumo-net-file value="./osm.net.xml"/>
    </input>

    <output>
        <output-file value="./osm.net.xml"/>
        <output.street-names value="true"/>
    </output>

    <processing>
        <geometry.min-radius.fix.railways value="false"/>
        <geometry.avoid-overlap value="false"/>
        <geometry.max-grade.fix value="false"/>
        <offset.disable-normalization value="true"/>
        <lefthand value="1"/>
    </processing>

    <junctions>
        <no-turnarounds value="true"/>
        <junctions.corner-detail value="5"/>
        <junctions.limit-turn-speed value="5.50"/>
        <rectangular-lane-cut value="0"/>
    </junctions>

    <pedestrian>
        <walkingareas value="0"/>
    </pedestrian>

</neteditConfiguration>
-->

<net version="1.20" junctionCornerDetail="5" lefthand="true" limitTurnSpeed="5.50" avoidOverlap="0" xmlns:xsi="http://www.w3.org/2001/XMLSchema-instance" xsi:noNamespaceSchemaLocation="http://sumo.dlr.de/xsd/net_file.xsd">

    <location netOffset="-255371.98,-2675964.78" convBoundary="0.00,0.00,2183.33,1251.08" origBoundary="120.591960,24.177582,120.613367,24.188663" projParameter="+proj=utm +zone=51 +ellps=WGS84 +datum=WGS84 +units=m +no_defs"/>

    <type id="highway.footway" priority="1" numLanes="1" speed="2.78" allow="pedestrian" oneway="1" width="2.00"/>
    <type id="highway.path" priority="1" numLanes="1" speed="5.56" allow="pedestrian bicycle" oneway="0" width="2.00"/>
    <type id="highway.pedestrian" priority="1" numLanes="1" speed="2.78" allow="pedestrian" oneway="1" width="2.00"/>
    <type id="highway.primary" priority="12" numLanes="2" speed="27.78" disallow="tram rail_urban rail rail_electric rail_fast ship container cable_car subway aircraft wheelchair scooter drone" oneway="0"/>
    <type id="highway.residential" priority="3" numLanes="1" speed="13.89" disallow="tram rail_urban rail rail_electric rail_fast ship container cable_car subway aircraft wheelchair scooter drone" oneway="0"/>
    <type id="highway.service" priority="1" numLanes="1" speed="5.56" allow="pedestrian delivery bicycle" oneway="0"/>
    <type id="highway.steps" priority="1" numLanes="1" speed="1.39" allow="pedestrian" oneway="1" width="2.00"/>
    <type id="highway.tertiary" priority="10" numLanes="1" speed="22.22" disallow="tram rail_urban rail rail_electric rail_fast ship container cable_car subway aircraft wheelchair scooter drone" oneway="0"/>
    <type id="highway.tertiary_link" priority="5" numLanes="1" speed="22.22" disallow="tram rail_urban rail rail_electric rail_fast ship container cable_car subway aircraft wheelchair scooter drone" oneway="0"/>
    <type id="highway.track" priority="1" numLanes="1" speed="5.56" allow="pedestrian motorcycle moped bicycle" oneway="0"/>

    <edge id=":10096400491_0" function="internal">
        <lane id=":10096400491_0_0" index="0" allow="pedestrian bicycle" speed="2.89" length="2.92" width="2.00" shape="2167.64,104.40 2168.16,103.67 2168.21,103.11 2167.80,102.74 2166.92,102.54"/>
    </edge>
    <edge id=":10096400495_0" function="internal">
        <lane id=":10096400495_0_0" index="0" allow="pedestrian bicycle" speed="5.83" length="7.02" width="2.00" shape="2099.37,120.68 2096.79,121.37 2094.98,122.16 2093.96,123.05 2093.71,124.04"/>
    </edge>
    <edge id=":10096400495_1" function="internal">
        <lane id=":10096400495_1_0" index="0" allow="pedestrian bicycle" speed="4.37" length="3.30" width="2.00" shape="2096.88,123.59 2097.14,123.06 2097.92,122.82 2098.91,122.73 2099.80,122.63"/>
    </edge>
    <edge id=":10096400495_2" function="internal">
        <lane id=":10096400495_2_0" index="0" disallow="tram rail_urban rail rail_electric rail_fast ship container cable_car subway aircraft wheelchair scooter drone" speed="3.65" length="4.67" shape="2096.88,123.59 2095.92,122.52 2095.08,122.23 2094.34,122.74 2093.71,124.04"/>
    </edge>
    <edge id=":11149365885_0" function="internal">
        <lane id=":11149365885_0_0" index="0" allow="pedestrian delivery bicycle" speed="6.11" length="6.89" shape="1887.06,1204.83 1888.71,1203.99 1889.79,1202.81 1890.29,1201.30 1890.21,1199.45"/>
    </edge>
    <edge id=":11149365885_1" function="internal">
        <lane id=":11149365885_1_0" index="0" allow="pedestrian delivery bicycle" speed="3.92" length="2.30" shape="1887.06,1200.01 1887.09,1200.63 1886.92,1201.13 1886.56,1201.53 1886.01,1201.81"/>
    </edge>
    <edge id=":11149365885_2" function="internal">
        <lane id=":11149365885_2_0" index="0" disallow="tram rail_urban rail rail_electric rail_fast ship container cable_car subway aircraft wheelchair scooter drone" speed="3.65" length="4.67" shape="1887.06,1200.01 1888.06,1201.05 1888.92,1201.30 1889.64,1200.77 1890.21,1199.45"/>
    </edge>
    <edge id=":11149365886_0" function="internal">
        <lane id=":11149365886_0_0" index="0" allow="pedestrian delivery bicycle" speed="3.65" length="4.67" shape="1843.08,1216.72 1842.20,1217.87 1842.09,1218.75 1842.73,1219.38 1844.12,1219.74"/>
    </edge>
    <edge id=":11343670541_0" function="internal">
        <lane id=":11343670541_0_0" index="0" allow="pedestrian delivery bicycle" speed="3.65" length="4.67" shape="156.80,203.37 155.54,204.07 155.08,204.83 155.41,205.66 156.54,206.55"/>
    </edge>
    <edge id=":11343670545_0" function="internal">
        <lane id=":11343670545_0_0" index="0" allow="pedestrian delivery bicycle" speed="5.00" length="5.04" shape="7.13,76.46 6.61,75.18 6.63,74.05 7.20,73.07 8.32,72.24"/>
    </edge>
    <edge id=":11343670545_1" function="internal">
        <lane id=":11343670545_1_0" index="0" disallow="tram rail_urban rail rail_electric rail_fast ship container cable_car subway aircraft wheelchair scooter drone" speed="3.65" length="4.67" shape="7.13,76.46 5.83,75.83 4.94,75.89 4.45,76.64 4.36,78.08"/>
    </edge>
    <edge id=":11514168003_0" function="internal">
        <lane id=":11514168003_0_0" index="0" allow="pedestrian delivery bicycle" speed="5.47" length="5.54" shape="1068.60,856.21 1067.27,856.29 1066.14,855.84 1065.22,854.88 1064.48,853.39"/>
    </edge>
    <edge id=":11514168003_1" function="internal">
        <lane id=":11514168003_1_0" index="0" allow="pedestrian delivery bicycle" speed="5.56" length="9.47" shape="1068.60,856.21 1059.36,858.32"/>
    </edge>
    <edge id=":11514168003_2" function="internal">
        <lane id=":11514168003_2_0" index="0" allow="pedestrian delivery bicycle" speed="3.65" length="4.67" shape="1068.60,856.21 1067.61,857.26 1067.41,858.13 1067.98,858.82 1069.33,859.32"/>
    </edge>
    <edge id=":11514168003_3" function="internal">
        <lane id=":11514168003_3_0" index="0" allow="pedestrian delivery bicycle" speed="5.56" length="9.52" shape="1060.05,861.44 1069.33,859.32"/>
    </edge>
    <edge id=":11514168003_4" function="internal">
        <lane id=":11514168003_4_0" index="0" allow="pedestrian delivery bicycle" speed="5.56" length="10.82" shape="1060.05,861.44 1062.88,860.38 1064.56,858.68 1065.10,856.35 1064.48,853.39"/>
    </edge>
    <edge id=":11514168003_5" function="internal">
        <lane id=":11514168003_5_0" index="0" allow="pedestrian delivery bicycle" speed="3.65" length="4.67" shape="1060.05,861.44 1061.05,860.40 1061.27,859.54 1060.71,858.84 1059.36,858.32"/>
    </edge>
    <edge id=":11514168003_6" function="internal">
        <lane id=":11514168003_6_0" index="0" allow="pedestrian delivery bicycle" speed="4.91" length="5.16" shape="1061.47,854.48 1061.77,855.89 1061.51,857.00 1060.71,857.81 1059.36,858.32"/>
    </edge>
    <edge id=":11514168003_7" function="internal">
        <lane id=":11514168003_7_0" index="0" allow="pedestrian delivery bicycle" speed="5.56" length="10.27" shape="1061.47,854.48 1062.80,857.10 1064.56,858.78 1066.73,859.52 1069.33,859.32"/>
    </edge>
    <edge id=":11514168003_8" function="internal">
        <lane id=":11514168003_8_0" index="0" allow="pedestrian delivery bicycle" speed="3.65" length="4.67" shape="1061.47,854.48 1062.64,855.33 1063.52,855.44 1064.14,854.79 1064.48,853.39"/>
    </edge>
    <edge id=":11514168004_0" function="internal">
        <lane id=":11514168004_0_0" index="0" allow="pedestrian delivery bicycle" speed="5.56" length="9.47" shape="1072.57,822.03 1064.14,826.35"/>
    </edge>
    <edge id=":11514168004_1" function="internal">
        <lane id=":11514168004_1_0" index="0" allow="pedestrian delivery bicycle" speed="5.56" length="10.26" shape="1072.57,822.03 1070.51,823.55 1069.34,825.52 1069.05,827.96 1069.67,830.85"/>
    </edge>
    <edge id=":11514168004_2" function="internal">
        <lane id=":11514168004_2_0" index="0" allow="pedestrian delivery bicycle" speed="3.65" length="4.67" shape="1072.57,822.03 1071.87,823.29 1071.88,824.19 1072.60,824.72 1074.03,824.88"/>
    </edge>
    <edge id=":11514168004_3" function="internal">
        <lane id=":11514168004_3_0" index="0" allow="pedestrian delivery bicycle" speed="5.56" length="5.64" shape="1072.70,829.82 1072.32,828.15 1072.42,826.77 1072.99,825.68 1074.03,824.88"/>
    </edge>
    <edge id=":11514168004_4" function="internal">
        <lane id=":11514168004_4_0" index="0" allow="pedestrian delivery bicycle" speed="5.56" length="10.92" shape="1072.70,829.82 1071.31,827.09 1069.43,825.61 1067.04,825.36 1064.14,826.35"/>
    </edge>
    <edge id=":11514168004_5" function="internal">
        <lane id=":11514168004_5_0" index="0" allow="pedestrian delivery bicycle" speed="3.65" length="4.67" shape="1072.70,829.82 1071.55,828.94 1070.67,828.82 1070.04,829.45 1069.67,830.85"/>
    </edge>
    <edge id=":11514168004_6" function="internal">
        <lane id=":11514168004_6_0" index="0" allow="pedestrian delivery bicycle" speed="4.90" length="5.18" shape="1065.60,829.20 1066.98,828.73 1068.11,828.85 1069.01,829.55 1069.67,830.85"/>
    </edge>
    <edge id=":11514168004_7" function="internal">
        <lane id=":11514168004_7_0" index="0" allow="pedestrian delivery bicycle" speed="5.56" length="9.47" shape="1065.60,829.20 1074.03,824.88"/>
    </edge>
    <edge id=":11514168004_8" function="internal">
        <lane id=":11514168004_8_0" index="0" allow="pedestrian delivery bicycle" speed="3.65" length="4.67" shape="1065.60,829.20 1066.31,827.94 1066.30,827.05 1065.58,826.52 1064.14,826.35"/>
    </edge>
    <edge id=":11514168005_0" function="internal">
        <lane id=":11514168005_0_0" index="0" allow="pedestrian delivery bicycle" speed="5.38" length="5.40" shape="1083.54,852.69 1082.21,852.77 1081.10,852.34 1080.21,851.41 1079.53,849.98"/>
    </edge>
    <edge id=":11514168005_1" function="internal">
        <lane id=":11514168005_1_0" index="0" allow="pedestrian delivery bicycle" speed="5.56" length="9.42" shape="1083.54,852.69 1074.37,854.84"/>
    </edge>
    <edge id=":11514168005_2" function="internal">
        <lane id=":11514168005_2_0" index="0" allow="pedestrian delivery bicycle" speed="3.65" length="4.67" shape="1083.54,852.69 1082.55,853.74 1082.35,854.61 1082.92,855.30 1084.26,855.81"/>
    </edge>
    <edge id=":11514168005_3" function="internal">
        <lane id=":11514168005_3_0" index="0" allow="pedestrian delivery bicycle" speed="5.56" length="9.40" shape="1075.11,857.95 1084.26,855.81"/>
    </edge>
    <edge id=":11514168005_4" function="internal">
        <lane id=":11514168005_4_0" index="0" allow="pedestrian delivery bicycle" speed="5.56" length="10.64" shape="1075.11,857.95 1077.86,856.87 1079.51,855.18 1080.06,852.88 1079.53,849.98"/>
    </edge>
    <edge id=":11514168005_5" function="internal">
        <lane id=":11514168005_5_0" index="0" allow="pedestrian delivery bicycle" speed="3.65" length="4.67" shape="1075.11,857.95 1076.09,856.90 1076.30,856.03 1075.72,855.34 1074.37,854.84"/>
    </edge>
    <edge id=":11514168005_6" function="internal">
        <lane id=":11514168005_6_0" index="0" allow="pedestrian delivery bicycle" speed="4.95" length="5.12" shape="1076.50,851.00 1076.75,852.40 1076.49,853.51 1075.69,854.32 1074.37,854.84"/>
    </edge>
    <edge id=":11514168005_7" function="internal">
        <lane id=":11514168005_7_0" index="0" allow="pedestrian delivery bicycle" speed="5.56" length="10.20" shape="1076.50,851.00 1077.76,853.60 1079.47,855.27 1081.64,856.00 1084.26,855.81"/>
    </edge>
    <edge id=":11514168005_8" function="internal">
        <lane id=":11514168005_8_0" index="0" allow="pedestrian delivery bicycle" speed="3.65" length="4.67" shape="1076.50,851.00 1077.64,851.88 1078.52,852.01 1079.15,851.37 1079.53,849.98"/>
    </edge>
    <edge id=":11514168006_0" function="internal">
        <lane id=":11514168006_0_0" index="0" allow="pedestrian delivery bicycle" speed="5.56" length="9.47" shape="1086.73,814.78 1078.31,819.10"/>
    </edge>
    <edge id=":11514168006_1" function="internal">
        <lane id=":11514168006_1_0" index="0" allow="pedestrian delivery bicycle" speed="5.56" length="10.26" shape="1086.73,814.78 1084.66,816.30 1083.49,818.27 1083.21,820.70 1083.83,823.58"/>
    </edge>
    <edge id=":11514168006_2" function="internal">
        <lane id=":11514168006_2_0" index="0" allow="pedestrian delivery bicycle" speed="3.65" length="4.67" shape="1086.73,814.78 1086.03,816.04 1086.04,816.93 1086.76,817.46 1088.19,817.63"/>
    </edge>
    <edge id=":11514168006_3" function="internal">
        <lane id=":11514168006_3_0" index="0" allow="pedestrian delivery bicycle" speed="5.56" length="5.62" shape="1086.86,822.55 1086.48,820.89 1086.57,819.51 1087.14,818.43 1088.19,817.63"/>
    </edge>
    <edge id=":11514168006_4" function="internal">
        <lane id=":11514168006_4_0" index="0" allow="pedestrian delivery bicycle" speed="5.56" length="10.90" shape="1086.86,822.55 1085.47,819.83 1083.58,818.35 1081.19,818.11 1078.31,819.10"/>
    </edge>
    <edge id=":11514168006_5" function="internal">
        <lane id=":11514168006_5_0" index="0" allow="pedestrian delivery bicycle" speed="3.65" length="4.67" shape="1086.86,822.55 1085.71,821.67 1084.82,821.55 1084.20,822.19 1083.83,823.58"/>
    </edge>
    <edge id=":11514168006_6" function="internal">
        <lane id=":11514168006_6_0" index="0" allow="pedestrian delivery bicycle" speed="4.90" length="5.18" shape="1079.77,821.94 1081.14,821.47 1082.27,821.59 1083.17,822.29 1083.83,823.58"/>
    </edge>
    <edge id=":11514168006_7" function="internal">
        <lane id=":11514168006_7_0" index="0" allow="pedestrian delivery bicycle" speed="5.56" length="9.47" shape="1079.77,821.94 1088.19,817.63"/>
    </edge>
    <edge id=":11514168006_8" function="internal">
        <lane id=":11514168006_8_0" index="0" allow="pedestrian delivery bicycle" speed="3.65" length="4.67" shape="1079.77,821.94 1080.47,820.68 1080.46,819.79 1079.74,819.26 1078.31,819.10"/>
    </edge>
    <edge id=":11514168007_0" function="internal">
        <lane id=":11514168007_0_0" index="0" allow="pedestrian delivery bicycle" speed="5.40" length="5.43" shape="1099.04,849.10 1097.72,849.18 1096.60,848.75 1095.70,847.81 1095.01,846.36"/>
    </edge>
    <edge id=":11514168007_1" function="internal">
        <lane id=":11514168007_1_0" index="0" allow="pedestrian delivery bicycle" speed="5.56" length="9.43" shape="1099.04,849.10 1089.85,851.23"/>
    </edge>
    <edge id=":11514168007_2" function="internal">
        <lane id=":11514168007_2_0" index="0" allow="pedestrian delivery bicycle" speed="3.65" length="4.67" shape="1099.04,849.10 1098.05,850.15 1097.85,851.02 1098.41,851.71 1099.76,852.22"/>
    </edge>
    <edge id=":11514168007_3" function="internal">
        <lane id=":11514168007_3_0" index="0" allow="pedestrian delivery bicycle" speed="5.56" length="9.43" shape="1090.58,854.35 1099.76,852.22"/>
    </edge>
    <edge id=":11514168007_4" function="internal">
        <lane id=":11514168007_4_0" index="0" allow="pedestrian delivery bicycle" speed="5.56" length="10.68" shape="1090.58,854.35 1093.34,853.27 1095.01,851.58 1095.56,849.28 1095.01,846.36"/>
    </edge>
    <edge id=":11514168007_5" function="internal">
        <lane id=":11514168007_5_0" index="0" allow="pedestrian delivery bicycle" speed="3.65" length="4.67" shape="1090.58,854.35 1091.56,853.30 1091.77,852.43 1091.20,851.74 1089.85,851.23"/>
    </edge>
    <edge id=":11514168007_6" function="internal">
        <lane id=":11514168007_6_0" index="0" allow="pedestrian delivery bicycle" speed="4.94" length="5.13" shape="1091.98,847.39 1092.25,848.80 1091.98,849.90 1091.18,850.71 1089.85,851.23"/>
    </edge>
    <edge id=":11514168007_7" function="internal">
        <lane id=":11514168007_7_0" index="0" allow="pedestrian delivery bicycle" speed="5.56" length="10.22" shape="1091.98,847.39 1093.26,850.00 1094.98,851.67 1097.15,852.41 1099.76,852.22"/>
    </edge>
    <edge id=":11514168007_8" function="internal">
        <lane id=":11514168007_8_0" index="0" allow="pedestrian delivery bicycle" speed="3.65" length="4.67" shape="1091.98,847.39 1093.13,848.27 1094.01,848.39 1094.64,847.75 1095.01,846.36"/>
    </edge>
    <edge id=":11514168008_0" function="internal">
        <lane id=":11514168008_0_0" index="0" allow="pedestrian delivery bicycle" speed="5.56" length="9.47" shape="1113.99,800.30 1105.66,804.81"/>
    </edge>
    <edge id=":11514168008_1" function="internal">
        <lane id=":11514168008_1_0" index="0" allow="pedestrian delivery bicycle" speed="5.56" length="10.26" shape="1113.99,800.30 1111.96,801.86 1110.83,803.86 1110.61,806.30 1111.28,809.18"/>
    </edge>
    <edge id=":11514168008_2" function="internal">
        <lane id=":11514168008_2_0" index="0" allow="pedestrian delivery bicycle" speed="3.65" length="4.67" shape="1113.99,800.30 1113.31,801.57 1113.34,802.47 1114.07,802.98 1115.51,803.11"/>
    </edge>
    <edge id=":11514168008_3" function="internal">
        <lane id=":11514168008_3_0" index="0" allow="pedestrian delivery bicycle" speed="5.56" length="5.65" shape="1114.29,808.09 1113.87,806.43 1113.94,805.04 1114.49,803.94 1115.51,803.11"/>
    </edge>
    <edge id=":11514168008_4" function="internal">
        <lane id=":11514168008_4_0" index="0" allow="pedestrian delivery bicycle" speed="5.56" length="10.93" shape="1114.29,808.09 1112.85,805.39 1110.93,803.94 1108.53,803.75 1105.66,804.81"/>
    </edge>
    <edge id=":11514168008_5" function="internal">
        <lane id=":11514168008_5_0" index="0" allow="pedestrian delivery bicycle" speed="3.65" length="4.67" shape="1114.29,808.09 1113.13,807.24 1112.24,807.13 1111.62,807.78 1111.28,809.18"/>
    </edge>
    <edge id=":11514168008_6" function="internal">
        <lane id=":11514168008_6_0" index="0" allow="pedestrian delivery bicycle" speed="4.90" length="5.19" shape="1107.18,807.62 1108.55,807.12 1109.68,807.21 1110.59,807.90 1111.28,809.18"/>
    </edge>
    <edge id=":11514168008_7" function="internal">
        <lane id=":11514168008_7_0" index="0" allow="pedestrian delivery bicycle" speed="5.56" length="9.47" shape="1107.18,807.62 1115.51,803.11"/>
    </edge>
    <edge id=":11514168008_8" function="internal">
        <lane id=":11514168008_8_0" index="0" allow="pedestrian delivery bicycle" speed="3.65" length="4.67" shape="1107.18,807.62 1107.86,806.35 1107.83,805.45 1107.10,804.94 1105.66,804.81"/>
    </edge>
    <edge id=":11514168010_0" function="internal">
        <lane id=":11514168010_0_0" index="0" allow="pedestrian delivery bicycle" speed="4.77" length="5.45" shape="1114.22,843.05 1112.88,843.87 1111.73,843.95 1110.78,843.31 1110.02,841.93"/>
    </edge>
    <edge id=":11514168010_1" function="internal">
        <lane id=":11514168010_1_0" index="0" allow="pedestrian delivery bicycle" speed="5.56" length="10.26" shape="1114.22,843.05 1111.87,844.95 1110.11,846.13 1108.16,846.92 1105.24,847.67"/>
    </edge>
    <edge id=":11514168010_2" function="internal">
        <lane id=":11514168010_2_0" index="0" allow="pedestrian delivery bicycle" speed="3.65" length="4.67" shape="1114.22,843.05 1113.80,844.43 1114.00,845.30 1114.82,845.67 1116.25,845.52"/>
    </edge>
    <edge id=":11514168010_3" function="internal">
        <lane id=":11514168010_3_0" index="0" allow="pedestrian delivery bicycle" speed="5.56" length="11.71" shape="1105.96,850.79 1109.08,849.94 1111.48,848.93 1113.70,847.53 1116.25,845.52"/>
    </edge>
    <edge id=":11514168010_4" function="internal">
        <lane id=":11514168010_4_0" index="0" allow="pedestrian delivery bicycle" speed="5.56" length="11.48" shape="1105.96,850.79 1108.77,849.65 1110.38,847.79 1110.80,845.22 1110.02,841.93"/>
    </edge>
    <edge id=":11514168010_5" function="internal">
        <lane id=":11514168010_5_0" index="0" allow="pedestrian delivery bicycle" speed="3.65" length="4.67" shape="1105.96,850.79 1106.95,849.74 1107.16,848.87 1106.59,848.18 1105.24,847.67"/>
    </edge>
    <edge id=":11514168010_6" function="internal">
        <lane id=":11514168010_6_0" index="0" allow="pedestrian delivery bicycle" speed="5.15" length="5.80" shape="1107.03,843.06 1107.46,844.80 1107.31,846.14 1106.57,847.10 1105.24,847.67"/>
    </edge>
    <edge id=":11514168010_7" function="internal">
        <lane id=":11514168010_7_0" index="0" allow="pedestrian delivery bicycle" speed="5.56" length="11.96" shape="1107.03,843.06 1108.69,846.09 1110.78,847.51 1113.30,847.32 1116.25,845.52"/>
    </edge>
    <edge id=":11514168010_8" function="internal">
        <lane id=":11514168010_8_0" index="0" allow="pedestrian delivery bicycle" speed="3.65" length="4.67" shape="1107.03,843.06 1108.20,843.90 1109.09,843.99 1109.70,843.33 1110.02,841.93"/>
    </edge>
    <edge id=":11514168012_0" function="internal">
        <lane id=":11514168012_0_0" index="0" allow="pedestrian delivery bicycle" speed="5.56" length="6.02" shape="1052.37,858.85 1051.17,858.54 1050.10,857.76 1049.18,856.51 1048.40,854.78"/>
    </edge>
    <edge id=":11514168012_1" function="internal">
        <lane id=":11514168012_1_0" index="0" allow="pedestrian delivery bicycle" speed="5.56" length="9.23" shape="1052.37,858.85 1049.64,858.75 1047.77,858.84 1045.91,859.14 1043.22,859.66"/>
    </edge>
    <edge id=":11514168012_2" function="internal">
        <lane id=":11514168012_2_0" index="0" allow="pedestrian delivery bicycle" speed="3.65" length="4.67" shape="1052.37,858.85 1051.13,859.58 1050.69,860.36 1051.05,861.18 1052.20,862.05"/>
    </edge>
    <edge id=":11514168012_3" function="internal">
        <lane id=":11514168012_3_0" index="0" allow="pedestrian delivery bicycle" speed="5.56" length="8.45" shape="1043.82,862.81 1046.28,862.32 1047.98,862.04 1049.70,861.96 1052.20,862.05"/>
    </edge>
    <edge id=":11514168012_4" function="internal">
        <lane id=":11514168012_4_0" index="0" allow="pedestrian delivery bicycle" speed="5.56" length="10.97" shape="1043.82,862.81 1046.73,861.80 1048.46,860.13 1049.02,857.79 1048.40,854.78"/>
    </edge>
    <edge id=":11514168012_5" function="internal">
        <lane id=":11514168012_5_0" index="0" allow="pedestrian delivery bicycle" speed="3.65" length="4.67" shape="1043.82,862.81 1044.85,861.80 1045.09,860.93 1044.55,860.22 1043.22,859.66"/>
    </edge>
    <edge id=":11514168012_6" function="internal">
        <lane id=":11514168012_6_0" index="0" allow="pedestrian delivery bicycle" speed="4.89" length="5.20" shape="1045.39,855.86 1045.68,857.28 1045.42,858.40 1044.60,859.19 1043.22,859.66"/>
    </edge>
    <edge id=":11514168012_7" function="internal">
        <lane id=":11514168012_7_0" index="0" allow="pedestrian delivery bicycle" speed="5.56" length="9.78" shape="1045.39,855.86 1046.62,858.47 1048.16,860.37 1050.02,861.56 1052.20,862.05"/>
    </edge>
    <edge id=":11514168012_8" function="internal">
        <lane id=":11514168012_8_0" index="0" allow="pedestrian delivery bicycle" speed="3.65" length="4.67" shape="1045.39,855.86 1046.55,856.72 1047.44,856.82 1048.06,856.18 1048.40,854.78"/>
    </edge>
    <edge id=":11514168014_0" function="internal">
        <lane id=":11514168014_0_0" index="0" disallow="tram rail_urban rail rail_electric rail_fast ship container cable_car subway aircraft wheelchair scooter drone" speed="22.22" length="9.40" shape="1130.29,798.50 1125.62,790.34"/>
        <lane id=":11514168014_0_1" index="1" disallow="tram rail_urban rail rail_electric rail_fast ship container cable_car subway aircraft wheelchair scooter drone" speed="22.22" length="9.40" shape="1127.51,800.09 1122.84,791.93"/>
    </edge>
    <edge id=":11514168014_2" function="internal">
        <lane id=":11514168014_2_0" index="0" allow="pedestrian delivery bicycle" speed="6.14" length="7.79" shape="1127.51,800.09 1125.98,797.81 1124.49,796.39 1123.04,795.83 1121.64,796.15"/>
    </edge>
    <edge id=":11514168014_3" function="internal">
        <lane id=":11514168014_3_0" index="0" allow="pedestrian delivery bicycle" speed="6.06" length="7.82" shape="1123.17,798.96 1124.20,797.95 1124.50,796.44 1124.04,794.43 1122.84,791.93"/>
    </edge>
    <edge id=":11514168014_4" function="internal">
        <lane id=":11514168014_4_0" index="0" allow="pedestrian delivery bicycle" speed="3.65" length="4.67" shape="1123.17,798.96 1123.84,797.69 1123.81,796.79 1123.08,796.28 1121.64,796.15"/>
    </edge>
    <edge id=":11514168015_0" function="internal">
        <lane id=":11514168015_0_0" index="0" allow="pedestrian delivery bicycle" speed="5.56" length="9.34" shape="1099.80,807.98 1091.53,812.32"/>
    </edge>
    <edge id=":11514168015_1" function="internal">
        <lane id=":11514168015_1_0" index="0" allow="pedestrian delivery bicycle" speed="5.56" length="10.18" shape="1099.80,807.98 1097.75,809.54 1096.61,811.53 1096.39,813.93 1097.08,816.75"/>
    </edge>
    <edge id=":11514168015_2" function="internal">
        <lane id=":11514168015_2_0" index="0" allow="pedestrian delivery bicycle" speed="3.65" length="4.67" shape="1099.80,807.98 1099.12,809.25 1099.15,810.15 1099.88,810.66 1101.32,810.79"/>
    </edge>
    <edge id=":11514168015_3" function="internal">
        <lane id=":11514168015_3_0" index="0" allow="pedestrian delivery bicycle" speed="5.50" length="5.51" shape="1100.07,815.62 1099.66,814.02 1099.73,812.69 1100.29,811.61 1101.32,810.79"/>
    </edge>
    <edge id=":11514168015_4" function="internal">
        <lane id=":11514168015_4_0" index="0" allow="pedestrian delivery bicycle" speed="5.56" length="10.73" shape="1100.07,815.62 1098.63,813.00 1096.72,811.58 1094.36,811.35 1091.53,812.32"/>
    </edge>
    <edge id=":11514168015_5" function="internal">
        <lane id=":11514168015_5_0" index="0" allow="pedestrian delivery bicycle" speed="3.65" length="4.67" shape="1100.07,815.62 1098.90,814.78 1098.01,814.69 1097.40,815.34 1097.08,816.75"/>
    </edge>
    <edge id=":11514168015_6" function="internal">
        <lane id=":11514168015_6_0" index="0" allow="pedestrian delivery bicycle" speed="4.93" length="5.14" shape="1092.99,815.17 1094.34,814.71 1095.48,814.81 1096.39,815.49 1097.08,816.75"/>
    </edge>
    <edge id=":11514168015_7" function="internal">
        <lane id=":11514168015_7_0" index="0" allow="pedestrian delivery bicycle" speed="5.56" length="9.41" shape="1092.99,815.17 1101.32,810.79"/>
    </edge>
    <edge id=":11514168015_8" function="internal">
        <lane id=":11514168015_8_0" index="0" allow="pedestrian delivery bicycle" speed="3.65" length="4.67" shape="1092.99,815.17 1093.69,813.91 1093.68,813.02 1092.96,812.49 1091.53,812.32"/>
    </edge>
    <edge id=":11514168016_0" function="internal">
        <lane id=":11514168016_0_0" index="0" allow="pedestrian delivery bicycle" speed="5.56" length="10.58" shape="1058.40,829.30 1055.71,830.74 1053.81,831.91 1052.03,833.25 1049.63,835.16"/>
    </edge>
    <edge id=":11514168016_1" function="internal">
        <lane id=":11514168016_1_0" index="0" allow="pedestrian delivery bicycle" speed="5.56" length="10.95" shape="1058.40,829.30 1056.33,830.87 1055.21,832.99 1055.04,835.64 1055.81,838.84"/>
    </edge>
    <edge id=":11514168016_2" function="internal">
        <lane id=":11514168016_2_0" index="0" allow="pedestrian delivery bicycle" speed="3.65" length="4.67" shape="1058.40,829.30 1057.70,830.56 1057.71,831.45 1058.43,831.98 1059.86,832.14"/>
    </edge>
    <edge id=":11514168016_3" function="internal">
        <lane id=":11514168016_3_0" index="0" allow="pedestrian delivery bicycle" speed="5.56" length="6.27" shape="1058.82,837.75 1058.31,835.80 1058.31,834.21 1058.83,832.99 1059.86,832.14"/>
    </edge>
    <edge id=":11514168016_4" function="internal">
        <lane id=":11514168016_4_0" index="0" allow="pedestrian delivery bicycle" speed="5.56" length="11.96" shape="1058.82,837.75 1057.20,834.70 1055.13,833.25 1052.61,833.40 1049.63,835.16"/>
    </edge>
    <edge id=":11514168016_5" function="internal">
        <lane id=":11514168016_5_0" index="0" allow="pedestrian delivery bicycle" speed="3.65" length="4.67" shape="1058.82,837.75 1057.66,836.90 1056.77,836.79 1056.16,837.44 1055.81,838.84"/>
    </edge>
    <edge id=":11514168016_6" function="internal">
        <lane id=":11514168016_6_0" index="0" allow="pedestrian delivery bicycle" speed="4.77" length="5.45" shape="1051.63,837.66 1052.98,836.86 1054.13,836.79 1055.08,837.45 1055.81,838.84"/>
    </edge>
    <edge id=":11514168016_7" function="internal">
        <lane id=":11514168016_7_0" index="0" allow="pedestrian delivery bicycle" speed="5.56" length="9.94" shape="1051.63,837.66 1053.93,835.81 1055.54,834.59 1057.26,833.52 1059.86,832.14"/>
    </edge>
    <edge id=":11514168016_8" function="internal">
        <lane id=":11514168016_8_0" index="0" allow="pedestrian delivery bicycle" speed="3.65" length="4.67" shape="1051.63,837.66 1052.07,836.29 1051.88,835.41 1051.07,835.04 1049.63,835.16"/>
    </edge>
    <edge id=":11514168017_0" function="internal">