<?xml version="1.0" encoding="UTF-8"?>

<!-- generated on 2025-10-26 17:40:25 by Eclipse SUMO netedit Version 1.24.0
-->

<routes xmlns:xsi="http://www.w3.org/2001/XMLSchema-instance" xsi:noNamespaceSchemaLocation="http://sumo.dlr.de/xsd/routes_file.xsd">
    <!-- Vehicles, persons and containers (sorted by depart) -->
    <trip id="motorcycle0" type="motorcycle" depart="0.00" departLane="best" from="-1117713207#1" to="367707574#1"/>
    <trip id="motorcycle1" type="motorcycle" depart="0.35" departLane="best" departSpeed="max" from="-341456563" to="103765643#0"/>
    <trip id="motorcycle2" type="motorcycle" depart="0.71" departLane="best" from="34990515#1" to="459934830#0"/>
    <trip id="motorcycle3" type="motorcycle" depart="1.06" departLane="best" from="-977815033#1" to="116690479#0"/>
    <trip id="motorcycle4" type="motorcycle" depart="1.41" departLane="best" from="-620772305#1" to="587218913"/>
    <trip id="motorcycle5" type="motorcycle" depart="1.77" departLane="best" departSpeed="max" from="1408953126#0" to="368209083"/>
    <trip id="motorcycle6" type="motorcycle" depart="2.12" departLane="best" from="-795671604#3" to="-341456542"/>
    <trip id="motorcycle7" type="motorcycle" depart="2.47" departLane="best" from="586657908#3" to="586657042#0"/>
    <trip id="motorcycle8" type="motorcycle" depart="2.83" departLane="best" departSpeed="max" from="-620775234#2" to="-323987231#0"/>
    <trip id="motorcycle9" type="motorcycle" depart="3.18" departLane="best" from="-336988370#1" to="587800915#2"/>
    <trip id="motorcycle10" type="motorcycle" depart="3.53" departLane="best" departSpeed="max" from="323987231#0" to="620862579"/>
    <trip id="motorcycle11" type="motorcycle" depart="3.89" departLane="best" from="350146685#1" to="-323987231#0"/>
    <trip id="motorcycle12" type="motorcycle" depart="4.24" departLane="best" from="337132072#3" to="444826919#2"/>
    <trip id="motorcycle13" type="motorcycle" depart="4.59" departLane="best" from="615037323" to="-586659717"/>
    <trip id="motorcycle14" type="motorcycle" depart="4.95" departLane="best" from="1305093056" to="367762382#1"/>
    <trip id="motorcycle15" type="motorcycle" depart="5.30" departLane="best" departSpeed="max" from="444476598" to="-116690596#1"/>
    <trip id="motorcycle16" type="motorcycle" depart="5.65" departLane="best" departSpeed="max" from="329817169" to="-620775234#1"/>
    <trip id="motorcycle17" type="motorcycle" depart="6.01" departLane="best" from="-367194255#2" to="33768805#0"/>
    <trip id="motorcycle18" type="motorcycle" depart="6.36" departLane="best" from="795671604#0" to="227019974#1"/>
    <trip id="motorcycle19" type="motorcycle" depart="6.71" departLane="best" from="367707574#1" to="-116690593#0"/>
    <trip id="motorcycle20" type="motorcycle" depart="7.07" departLane="best" from="739723515#0" to="337540073"/>
    <trip id="motorcycle21" type="motorcycle" depart="7.42" departLane="best" departSpeed="max" from="-227019974#1" to="-337132049"/>
    <trip id="motorcycle22" type="motorcycle" depart="7.77" departLane="best" departSpeed="max" from="-227019974#1" to="359450383#1"/>
    <trip id="motorcycle23" type="motorcycle" depart="8.13" departLane="best" from="-337132072#2" to="226946947"/>
    <trip id="motorcycle24" type="motorcycle" depart="8.48" departLane="best" from="-850677551#1" to="-116690480#0"/>
    <trip id="motorcycle25" type="motorcycle" depart="8.83" departLane="best" from="-1012133718#2" to="620768869#3"/>
    <trip id="motorcycle26" type="motorcycle" depart="9.19" departLane="best" from="368096544#1" to="898487482"/>
    <trip id="motorcycle27" type="motorcycle" depart="9.54" departLane="best" departSpeed="max" from="620766627" to="620764795"/>
    <trip id="motorcycle28" type="motorcycle" depart="9.89" departLane="best" departSpeed="max" from="-587793740" to="368096544#1"/>
    <trip id="motorcycle29" type="motorcycle" depart="10.25" departLane="best" from="367194255#2" to="586664246#1"/>
    <trip id="motorcycle30" type="motorcycle" depart="10.60" departLane="best" from="367700934#2" to="-323987231#0"/>
    <trip id="motorcycle31" type="motorcycle" depart="10.95" departLane="best" from="-367707574#1" to="620865939"/>
    <trip id="motorcycle32" type="motorcycle" depart="11.31" departLane="best" from="-620870374" to="367700883#2"/>
    <trip id="motorcycle33" type="motorcycle" depart="11.66" departLane="best" from="292749336#4" to="-368104071#1"/>
    <trip id="motorcycle34" type="motorcycle" depart="12.01" departLane="best" from="323987231#1" to="620775234#2"/>
    <trip id="motorcycle35" type="motorcycle" depart="12.37" departLane="best" from="-586659718" to="-615037321"/>
    <trip id="motorcycle36" type="motorcycle" depart="12.72" departLane="best" from="-367194255#2" to="-34990514#0"/>
    <trip id="motorcycle37" type="motorcycle" depart="13.07" departLane="best" from="644261214" to="362871972#2"/>
    <trip id="motorcycle38" type="motorcycle" depart="13.43" departLane="best" from="-367194255#4" to="-367707574#1"/>
    <trip id="motorcycle39" type="motorcycle" depart="13.78" departLane="best" from="-620862578#1" to="898487482"/>
    <trip id="motorcycle40" type="motorcycle" depart="14.13" departLane="best" from="-1324287528#1" to="-116690479#0"/>
    <trip id="motorcycle41" type="motorcycle" depart="14.49" departLane="best" departSpeed="max" from="1408953126#0" to="33836788#2"/>
    <trip id="motorcycle42" type="motorcycle" depart="14.84" departLane="best" from="586664246#2" to="628456652#1"/>
    <trip id="motorcycle43" type="motorcycle" depart="15.19" departLane="best" from="292749336#6" to="-368104071#4"/>
    <trip id="motorcycle44" type="motorcycle" depart="15.55" departLane="best" from="-33768805#5" to="368286982"/>
    <trip id="motorcycle45" type="motorcycle" depart="15.90" departLane="best" from="364177895#2" to="-336988370#1"/>
    <trip id="motorcycle46" type="motorcycle" depart="16.25" departLane="best" departSpeed="max" from="-368209083" to="-337132072#1"/>
    <trip id="motorcycle47" type="motorcycle" depart="16.61" departLane="best" from="292749336#4" to="367700934#1"/>
    <trip id="motorcycle48" type="motorcycle" depart="16.96" departLane="best" from="-367700934#0" to="-116690593#0"/>
    <trip id="motorcycle49" type="motorcycle" depart="17.31" departLane="best" departSpeed="max" from="-368286982" to="367762378"/>
    <trip id="motorcycle50" type="motorcycle" depart="17.67" departLane="best" departSpeed="max" from="-368286982" to="34990515#2"/>
    <trip id="motorcycle51" type="motorcycle" depart="18.02" departLane="best" from="368027034" to="109505207#0"/>
    <trip id="motorcycle52" type="motorcycle" depart="18.37" departLane="best" from="34990514#0" to="-444826908#2"/>
    <trip id="motorcycle53" type="motorcycle" depart="18.73" departLane="best" from="109505208#1" to="1012133718#0"/>
    <trip id="motorcycle54" type="motorcycle" depart="19.08" departLane="best" from="336988370#1" to="368096545#2"/>
    <trip id="motorcycle55" type="motorcycle" depart="19.43" departLane="best" departSpeed="max" from="337540075" to="586657042#0"/>
    <trip id="motorcycle56" type="motorcycle" depart="19.79" departLane="best" from="368027034" to="1305093055#0"/>
    <trip id="motorcycle57" type="motorcycle" depart="20.14" departLane="best" from="-368104091#6" to="109505208#3"/>
    <trip id="motorcycle58" type="motorcycle" depart="20.49" departLane="best" departSpeed="max" from="1012133719" to="-444826908#1"/>
    <trip id="motorcycle59" type="motorcycle" depart="20.85" departLane="best" departSpeed="max" from="-587793740" to="-977815033#1"/>
    <trip id="motorcycle60" type="motorcycle" depart="21.20" departLane="best" departSpeed="max" from="-368209083" to="-337132072#4"/>
    <trip id="motorcycle61" type="motorcycle" depart="21.55" departLane="best" from="459934830#1" to="-620768869#1"/>
    <trip id="motorcycle62" type="motorcycle" depart="21.91" departLane="best" from="-620768869#1" to="444826919#0"/>
    <trip id="motorcycle63" type="motorcycle" depart="22.26" departLane="best" from="364177895#1" to="1012133718#3"/>
    <trip id="motorcycle64" type="motorcycle" depart="22.61" departLane="best" from="-368096547#2" to="337540069#0"/>
    <trip id="motorcycle65" type="motorcycle" depart="22.97" departLane="best" departSpeed="max" from="444811599#0" to="-367700934#3"/>
    <trip id="motorcycle66" type="motorcycle" depart="23.32" departLane="best" from="620768869#0" to="-368104071#2"/>
    <trip id="motorcycle67" type="motorcycle" depart="23.67" departLane="best" from="-367194255#2" to="-368096547#0"/>
    <trip id="motorcycle68" type="motorcycle" depart="24.03" departLane="best" from="587800918#5" to="586661204"/>
    <trip id="motorcycle69" type="motorcycle" depart="24.38" departLane="best" departSpeed="max" from="116690596#0" to="-337132072#1"/>
    <trip id="motorcycle70" type="motorcycle" depart="24.73" departLane="best" from="368104071#4" to="-368096547#0"/>
    <trip id="motorcycle71" type="motorcycle" depart="25.09" departLane="best" departSpeed="max" from="-341456566" to="367700934#1"/>
    <trip id="motorcycle72" type="motorcycle" depart="25.44" departLane="best" from="-795671604#7" to="103759573"/>
    <trip id="motorcycle73" type="motorcycle" depart="25.79" departLane="best" from="109505204#0" to="34990516#0"/>
    <trip id="motorcycle74" type="motorcycle" depart="26.15" departLane="best" from="1117713207#0" to="555601518"/>
    <trip id="motorcycle75" type="motorcycle" depart="26.50" departLane="best" from="-444826908#3" to="362871972#0"/>
    <trip id="motorcycle76" type="motorcycle" depart="26.85" departLane="best" from="-367707574#1" to="367762378"/>
    <trip id="motorcycle77" type="motorcycle" depart="27.21" departLane="best" from="109505208#0" to="628456652#1"/>
    <trip id="motorcycle78" type="motorcycle" depart="27.56" departLane="best" from="615037319#0" to="586659413"/>
    <trip id="motorcycle79" type="motorcycle" depart="27.91" departLane="best" from="-367707574#0" to="587800915#2"/>
    <trip id="motorcycle80" type="motorcycle" depart="28.26" departLane="best" from="337540069#1" to="-227131720#0"/>
    <trip id="motorcycle81" type="motorcycle" depart="28.62" departLane="best" from="-337132072#4" to="-459934830#0"/>
    <trip id="motorcycle82" type="motorcycle" depart="28.97" departLane="best" from="33973140#3" to="-367762382#4"/>
    <trip id="motorcycle83" type="motorcycle" depart="29.32" departLane="best" departSpeed="max" from="-444811602" to="33768805#3"/>
    <trip id="motorcycle84" type="motorcycle" depart="29.68" departLane="best" departSpeed="max" from="444811599#0" to="341456563"/>
    <trip id="motorcycle85" type="motorcycle" depart="30.03" departLane="best" from="-621949168#5" to="341456563"/>
    <trip id="motorcycle86" type="motorcycle" depart="30.38" departLane="best" departSpeed="max" from="586595416" to="109505208#2"/>
    <trip id="motorcycle87" type="motorcycle" depart="30.74" departLane="best" from="292749336#6" to="380090117#0"/>
    <trip id="motorcycle88" type="motorcycle" depart="31.09" departLane="best" from="-337132072#5" to="1012133718#0"/>
    <trip id="motorcycle89" type="motorcycle" depart="31.44" departLane="best" from="337540063#0" to="-368096545#4"/>
    <trip id="motorcycle90" type="motorcycle" depart="31.80" departLane="best" from="362714491" to="116690479#3"/>
    <trip id="motorcycle91" type="motorcycle" depart="32.15" departLane="best" from="1305093054" to="-368027027#0"/>
    <trip id="motorcycle92" type="motorcycle" depart="32.50" departLane="best" from="368104091#3" to="-109505204#0"/>
    <trip id="motorcycle93" type="motorcycle" depart="32.86" departLane="best" from="1304287974" to="-1408953126#0"/>
    <trip id="motorcycle94" type="motorcycle" depart="33.21" departLane="best" from="350146685#1" to="-367194255#2"/>
    <trip id="motorcycle95" type="motorcycle" depart="33.56" departLane="best" from="33973140#3" to="227100507#0"/>
    <trip id="motorcycle96" type="motorcycle" depart="33.92" departLane="best" from="898487493" to="-620768869#0"/>
    <trip id="motorcycle97" type="motorcycle" depart="34.27" departLane="best" departSpeed="max" from="615037303" to="-555600351#0"/>
    <trip id="motorcycle98" type="motorcycle" depart="34.62" departLane="best" departSpeed="max" from="-444811602" to="-795671604#5"/>
    <trip id="motorcycle99" type="motorcycle" depart="34.98" departLane="best" from="-109505204#0" to="368096545#2"/>
    <trip id="motorcycle100" type="motorcycle" depart="35.33" departLane="best" from="-227100505#0" to="33836788#2"/>
    <trip id="motorcycle101" type="motorcycle" depart="35.68" departLane="best" from="-1305093056" to="-795671604#6"/>
    <trip id="motorcycle102" type="motorcycle" depart="36.04" departLane="best" from="-462987552#1" to="-620768866#0"/>
    <trip id="motorcycle103" type="motorcycle" depart="36.39" departLane="best" from="33768805#1" to="-444826919#1"/>
    <trip id="motorcycle104" type="motorcycle" depart="36.74" departLane="best" departSpeed="max" from="-444811602" to="-331675474"/>
    <trip id="motorcycle105" type="motorcycle" depart="37.10" departLane="best" departSpeed="max" from="-620768866#1" to="640708032#1"/>
    <trip id="motorcycle106" type="motorcycle" depart="37.45" departLane="best" from="-795671604#2" to="-341096510#0"/>
    <trip id="motorcycle107" type="motorcycle" depart="37.80" departLane="best" from="34990514#2" to="368096545#0"/>
    <trip id="motorcycle108" type="motorcycle" depart="38.16" departLane="best" from="-336988370#1" to="-555600351#0"/>
    <trip id="motorcycle109" type="motorcycle" depart="38.51" departLane="best" from="-444826919#0" to="462987550"/>
    <trip id="motorcycle110" type="motorcycle" depart="38.86" departLane="best" from="337132054" to="1222974661"/>
    <trip id="motorcycle111" type="motorcycle" depart="39.22" departLane="best" from="-795671604#6" to="227019974#1"/>
    <trip id="motorcycle112" type="motorcycle" depart="39.57" departLane="best" from="109505208#2" to="-368096547#2"/>
    <trip id="motorcycle113" type="motorcycle" depart="39.92" departLane="best" from="-620862578#3" to="-620874944"/>
    <trip id="motorcycle114" type="motorcycle" depart="40.28" departLane="best" from="116690596#2" to="1304287973"/>
    <trip id="motorcycle115" type="motorcycle" depart="40.63" departLane="best" from="227019974#0" to="-459934830#0"/>
    <trip id="motorcycle116" type="motorcycle" depart="40.98" departLane="best" from="368027023#0" to="-103765643#3"/>
    <trip id="motorcycle117" type="motorcycle" depart="41.34" departLane="best" from="888879165" to="615037320#2"/>
    <trip id="motorcycle118" type="motorcycle" depart="41.69" departLane="best" from="-977815033#1" to="368104091#2"/>
    <trip id="motorcycle119" type="motorcycle" depart="42.04" departLane="best" from="-368104091#6" to="350146685#1"/>
    <trip id="motorcycle120" type="motorcycle" depart="42.40" departLane="best" departSpeed="max" from="-368209083" to="-33973140#3"/>
    <trip id="motorcycle121" type="motorcycle" depart="42.75" departLane="best" from="-850677551#0" to="116690479#2"/>
    <trip id="motorcycle122" type="motorcycle" depart="43.10" departLane="best" from="-227019974#0" to="620862578#6"/>
    <trip id="motorcycle123" type="motorcycle" depart="43.46" departLane="best" departSpeed="max" from="329817169" to="368209083"/>
    <trip id="motorcycle124" type="motorcycle" depart="43.81" departLane="best" from="-444826908#1" to="-368104091#4"/>
    <trip id="motorcycle125" type="motorcycle" depart="44.16" departLane="best" departSpeed="max" from="-620862578#6" to="341456563"/>
    <trip id="motorcycle126" type="motorcycle" depart="44.52" departLane="best" from="1012133718#3" to="367762378"/>
    <trip id="motorcycle127" type="motorcycle" depart="44.87" departLane="best" from="890146631" to="337540063#0"/>
    <trip id="motorcycle128" type="motorcycle" depart="45.22" departLane="best" from="444826908#3" to="628456652#1"/>
    <trip id="motorcycle129" type="motorcycle" depart="45.58" departLane="best" from="615037322" to="620768866#1"/>
    <trip id="motorcycle130" type="motorcycle" depart="45.93" departLane="best" departSpeed="max" from="-587793740" to="368096545#4"/>
    <trip id="motorcycle131" type="motorcycle" depart="46.28" departLane="best" from="-368104071#0" to="-795671604#7"/>
    <trip id="motorcycle132" type="motorcycle" depart="46.64" departLane="best" from="327075459#0" to="-620849594"/>
    <trip id="motorcycle133" type="motorcycle" depart="46.99" departLane="best" departSpeed="max" from="-586659413" to="109505208#4"/>
    <trip id="motorcycle134" type="motorcycle" depart="47.34" departLane="best" from="-109505207#4" to="898487483#0"/>
    <trip id="motorcycle135" type="motorcycle" depart="47.70" departLane="best" departSpeed="max" from="323987231#0" to="-116690480#1"/>
    <trip id="motorcycle136" type="motorcycle" depart="48.05" departLane="best" from="-1305093056" to="109505204#1"/>
    <trip id="motorcycle137" type="motorcycle" depart="48.40" departLane="best" departSpeed="max" from="586657041" to="-368027050"/>
    <trip id="motorcycle138" type="motorcycle" depart="48.76" departLane="best" from="-33836788#0" to="-1305093054"/>
    <trip id="motorcycle139" type="motorcycle" depart="49.11" departLane="best" from="362871972#3" to="368286982"/>
    <trip id="motorcycle140" type="motorcycle" depart="49.46" departLane="best" from="-644261214" to="-615037323"/>
    <trip id="motorcycle141" type="motorcycle" depart="49.82" departLane="best" from="850677552" to="-368096545#2"/>
    <trip id="motorcycle142" type="motorcycle" depart="50.17" departLane="best" from="444826919#0" to="555600865"/>
    <trip id="motorcycle143" type="motorcycle" depart="50.52" departLane="best" from="-977815033#1" to="444826919#1"/>
    <trip id="motorcycle144" type="motorcycle" depart="50.88" departLane="best" departSpeed="max" from="586657041" to="364177895#2"/>
    <trip id="motorcycle145" type="motorcycle" depart="51.23" departLane="best" departSpeed="max" from="-620775234#2" to="621949168#2"/>
    <trip id="motorcycle146" type="motorcycle" depart="51.58" departLane="best" from="-795671604#4" to="-462987553"/>
    <trip id="motorcycle147" type="motorcycle" depart="51.94" departLane="best" departSpeed="max" from="-628456652#1" to="292749336#4"/>
    <trip id="motorcycle148" type="motorcycle" depart="52.29" departLane="best" departSpeed="max" from="337132049" to="-116690593#0"/>
    <trip id="motorcycle149" type="motorcycle" depart="52.64" departLane="best" from="-795671604#0" to="462987553"/>
    <trip id="motorcycle150" type="motorcycle" depart="53.00" departLane="best" from="444826919#0" to="368104071#4"/>
    <trip id="motorcycle151" type="motorcycle" depart="53.35" departLane="best" from="368027038" to="1222974661"/>
    <trip id="motorcycle152" type="motorcycle" depart="53.70" departLane="best" from="368096545#5" to="-1117713207#1"/>
    <trip id="motorcycle153" type="motorcycle" depart="54.06" departLane="best" from="-368104071#0" to="-109505207#2"/>
    <trip id="motorcycle154" type="motorcycle" depart="54.41" departLane="best" from="-586659718" to="-555600865"/>
    <trip id="motorcycle155" type="motorcycle" depart="54.76" departLane="best" departSpeed="max" from="341096510#0" to="227100507#1"/>
    <trip id="motorcycle156" type="motorcycle" depart="55.12" departLane="best" from="-341096510#0" to="620768869#0"/>
    <trip id="motorcycle157" type="motorcycle" depart="55.47" departLane="best" from="-368096544#3" to="615037320#2"/>
    <trip id="motorcycle158" type="motorcycle" depart="55.82" departLane="best" from="-620862578#1" to="227019974#1"/>
    <trip id="motorcycle159" type="motorcycle" depart="56.18" departLane="best" departSpeed="max" from="337132049" to="-620768869#2"/>
    <trip id="motorcycle160" type="motorcycle" depart="56.53" departLane="best" from="898487493" to="586664246#4"/>
    <trip id="motorcycle161" type="motorcycle" depart="56.88" departLane="best" departSpeed="max" from="-620768866#1" to="-337132049"/>
    <trip id="motorcycle162" type="motorcycle" depart="57.24" departLane="best" departSpeed="max" from="1309954088" to="103765643#0"/>
    <trip id="motorcycle163" type="motorcycle" depart="57.59" departLane="best" from="-850677551#1" to="33768751"/>
    <trip id="motorcycle164" type="motorcycle" depart="57.94" departLane="best" departSpeed="max" from="-103759573" to="292749336#2"/>
    <trip id="motorcycle165" type="motorcycle" depart="58.30" departLane="best" from="-1012133718#1" to="292749336#4"/>
    <trip id="motorcycle166" type="motorcycle" depart="58.65" departLane="best" from="620775234#1" to="367700883#2"/>
    <trip id="motorcycle167" type="motorcycle" depart="59.00" departLane="best" departSpeed="max" from="116690596#0" to="-620849594"/>
    <trip id="motorcycle168" type="motorcycle" depart="59.36" departLane="best" from="-368027023#1" to="103759573"/>
    <trip id="motorcycle169" type="motorcycle" depart="59.71" departLane="best" from="-227100507#0" to="-368096544#2"/>
    <trip id="motorcycle170" type="motorcycle" depart="60.06" departLane="best" from="-368190050#1" to="-227131720#1"/>
    <trip id="motorcycle171" type="motorcycle" depart="60.42" departLane="best" from="-227131720#1" to="586657908#2"/>
    <trip id="motorcycle172" type="motorcycle" depart="60.77" departLane="best" departSpeed="max" from="-555601438#2" to="364177895#0"/>
    <trip id="motorcycle173" type="motorcycle" depart="61.12" departLane="best" from="1012133718#0" to="-116690480#0"/>
    <trip id="motorcycle174" type="motorcycle" depart="61.48" departLane="best" departSpeed="max" from="-226946947" to="-337132049"/>
    <trip id="motorcycle175" type="motorcycle" depart="61.83" departLane="best" from="621949168#4" to="367700883#3"/>
    <trip id="motorcycle176" type="motorcycle" depart="62.18" departLane="best" from="-367762378" to="-116690479#2"/>
    <trip id="motorcycle177" type="motorcycle" depart="62.54" departLane="best" from="615037320#1" to="-586664246#3"/>
    <trip id="motorcycle178" type="motorcycle" depart="62.89" departLane="best" departSpeed="max" from="335575150" to="795671604#3"/>
    <trip id="motorcycle179" type="motorcycle" depart="63.24" departLane="best" departSpeed="max" from="-367700883#3" to="-368104071#4"/>
    <trip id="motorcycle180" type="motorcycle" depart="63.60" departLane="best" from="-587218913" to="-380090117#1"/>
    <trip id="motorcycle181" type="motorcycle" depart="63.95" departLane="best" departSpeed="max" from="116690480#0" to="-109505208#1"/>
    <trip id="motorcycle182" type="motorcycle" depart="64.30" departLane="best" from="462987550" to="977815033#0"/>
    <trip id="motorcycle183" type="motorcycle" depart="64.66" departLane="best" departSpeed="max" from="-628456652#1" to="587800918#1"/>
    <trip id="motorcycle184" type="motorcycle" depart="65.01" departLane="best" departSpeed="max" from="620869256" to="-368104071#4"/>
    <trip id="motorcycle185" type="motorcycle" depart="65.36" departLane="best" from="341096510#1" to="444826919#1"/>
    <trip id="motorcycle186" type="motorcycle" depart="65.72" departLane="best" from="368096544#1" to="555600351#1"/>
    <trip id="motorcycle187" type="motorcycle" depart="66.07" departLane="best" from="-368096545#3" to="555601438#2"/>
    <trip id="motorcycle188" type="motorcycle" depart="66.42" departLane="best" from="368096544#0" to="368096545#5"/>
    <trip id="motorcycle189" type="motorcycle" depart="66.78" departLane="best" from="350146688#3" to="368104071#1"/>
    <trip id="motorcycle190" type="motorcycle" depart="67.13" departLane="best" departSpeed="max" from="376346459" to="-368027023#1"/>
    <trip id="motorcycle191" type="motorcycle" depart="67.48" departLane="best" departSpeed="max" from="586595416" to="34990516#1"/>
    <trip id="motorcycle192" type="motorcycle" depart="67.84" departLane="best" from="795671604#2" to="444811602"/>
    <trip id="motorcycle193" type="motorcycle" depart="68.19" departLane="best" from="-337540063#0" to="-586659717"/>
    <trip id="motorcycle194" type="motorcycle" depart="68.54" departLane="best" departSpeed="max" from="323987231#0" to="795671604#1"/>
    <trip id="motorcycle195" type="motorcycle" depart="68.90" departLane="best" from="586664246#0" to="-555600351#0"/>
    <trip id="motorcycle196" type="motorcycle" depart="69.25" departLane="best" departSpeed="max" from="-103759573" to="-444476598"/>
    <trip id="motorcycle197" type="motorcycle" depart="69.60" departLane="best" departSpeed="max" from="116690593#0" to="116690596#2"/>
    <trip id="motorcycle198" type="motorcycle" depart="69.96" departLane="best" from="367762378" to="-444826919#1"/>
    <trip id="motorcycle199" type="motorcycle" depart="70.31" departLane="best" from="-462987552#1" to="-337132072#0"/>
    <trip id="motorcycle200" type="motorcycle" depart="70.66" departLane="best" from="109505208#1" to="-861783801"/>
    <trip id="motorcycle201" type="motorcycle" depart="71.02" departLane="best" departSpeed="max" from="-1012133718#4" to="-337132049"/>
    <trip id="motorcycle202" type="motorcycle" depart="71.37" departLane="best" from="368096546#0" to="368190050#1"/>
    <trip id="motorcycle203" type="motorcycle" depart="71.72" departLane="best" from="-620862578#1" to="34990514#4"/>
    <trip id="motorcycle204" type="motorcycle" depart="72.08" departLane="best" departSpeed="max" from="586657041" to="368096547#1"/>
    <trip id="motorcycle205" type="motorcycle" depart="72.43" departLane="best" from="292749336#4" to="620768866#1"/>
    <trip id="motorcycle206" type="motorcycle" depart="72.78" departLane="best" from="-1304287974" to="-1012133718#0"/>
    <trip id="motorcycle207" type="motorcycle" depart="73.14" departLane="best" from="-368027023#0" to="116690596#1"/>
    <trip id="motorcycle208" type="motorcycle" depart="73.49" departLane="best" from="368104091#2" to="-555600351#0"/>
    <trip id="motorcycle209" type="motorcycle" depart="73.84" departLane="best" departSpeed="max" from="-34990514#4" to="640708032#1"/>
    <trip id="motorcycle210" type="motorcycle" depart="74.20" departLane="best" from="350146688#2" to="-555600351#0"/>
    <trip id="motorcycle211" type="motorcycle" depart="74.55" departLane="best" from="-109505204#0" to="-109505207#0"/>
    <trip id="motorcycle212" type="motorcycle" depart="74.90" departLane="best" departSpeed="max" from="-341456563" to="-620772305#1"/>
    <trip id="motorcycle213" type="motorcycle" depart="75.26" departLane="best" from="1305093055#0" to="368190050#1"/>
    <trip id="motorcycle214" type="motorcycle" depart="75.61" departLane="best" from="621949168#1" to="620865939"/>
    <trip id="motorcycle215" type="motorcycle" depart="75.96" departLane="best" departSpeed="max" from="586657041" to="587800918#5"/>
    <trip id="motorcycle216" type="motorcycle" depart="76.32" departLane="best" departSpeed="max" from="1309954088" to="292749336#5"/>
    <trip id="motorcycle217" type="motorcycle" depart="76.67" departLane="best" from="640708032#0" to="-444811599#0"/>
    <trip id="motorcycle218" type="motorcycle" depart="77.02" departLane="best" departSpeed="max" from="-587793740" to="977804218"/>
    <trip id="motorcycle219" type="motorcycle" depart="77.38" departLane="best" departSpeed="max" from="-620775234#2" to="-103765643#0"/>
    <trip id="motorcycle220" type="motorcycle" depart="77.73" departLane="best" from="292749336#5" to="462987551"/>
    <trip id="motorcycle221" type="motorcycle" depart="78.08" departLane="best" departSpeed="max" from="-227019974#1" to="-116690596#1"/>
    <trip id="motorcycle222" type="motorcycle" depart="78.44" departLane="best" from="586664246#2" to="341096510#1"/>
    <trip id="motorcycle223" type="motorcycle" depart="78.79" departLane="best" from="444826908#3" to="586657908#0"/>
    <trip id="motorcycle224" type="motorcycle" depart="79.14" departLane="best" departSpeed="max" from="-34990514#4" to="-444811599#0"/>
    <trip id="motorcycle225" type="motorcycle" depart="79.50" departLane="best" from="-359450383#1" to="1305093055#1"/>
    <trip id="motorcycle226" type="motorcycle" depart="79.85" departLane="best" departSpeed="max" from="-586659413" to="-227131720#0"/>
    <trip id="motorcycle227" type="motorcycle" depart="80.20" departLane="best" from="459934830#1" to="586664246#2"/>
    <trip id="motorcycle228" type="motorcycle" depart="80.56" departLane="best" departSpeed="max" from="1309954088" to="-33768805#3"/>
    <trip id="motorcycle229" type="motorcycle" depart="80.91" departLane="best" from="462987551" to="226946949"/>
    <trip id="motorcycle230" type="motorcycle" depart="81.26" departLane="best" from="-620862578#0" to="-323987231#0"/>
    <trip id="motorcycle231" type="motorcycle" depart="81.62" departLane="best" departSpeed="max" from="586657041" to="-368190050#1"/>
    <trip id="motorcycle232" type="motorcycle" depart="81.97" departLane="best" from="795671604#5" to="-368027027#0"/>
    <trip id="motorcycle233" type="motorcycle" depart="82.32" departLane="best" from="-444811599#2" to="341456566"/>
    <trip id="motorcycle234" type="motorcycle" depart="82.68" departLane="best" from="-462987552#1" to="-329817169"/>
    <trip id="motorcycle235" type="motorcycle" depart="83.03" departLane="best" from="-337132072#3" to="-444826919#0"/>
    <trip id="motorcycle236" type="motorcycle" depart="83.38" departLane="best" from="-615037320#1" to="-116690480#0"/>
    <trip id="motorcycle237" type="motorcycle" depart="83.73" departLane="best" from="890146631" to="586664246#0"/>
    <trip id="motorcycle238" type="motorcycle" depart="84.09" departLane="best" from="227100507#1" to="1012133718#4"/>
    <trip id="motorcycle239" type="motorcycle" depart="84.44" departLane="best" departSpeed="max" from="-587793740" to="555600865"/>
    <trip id="motorcycle240" type="motorcycle" depart="84.79" departLane="best" from="-34990514#1" to="-444811599#0"/>
    <trip id="motorcycle241" type="motorcycle" depart="85.15" departLane="best" from="368104071#3" to="898487483#0"/>