<?xml version="1.0" encoding="UTF-8"?>

<!-- generated on 2025-11-04 14:17:11.049619 by osmWebWizard.py UNKNOWN
<configuration>
    <net-file value="/home/sour/Sumo/2025-11-04-13-16-48/2025-11-04-14-16-43/osm.net.xml.gz"/>
    <output-trip-file value="/home/sour/Sumo/2025-11-04-13-16-48/2025-11-04-14-16-43/osm.truck.trips.xml"/>
    <route-file value="/home/sour/Sumo/2025-11-04-13-16-48/2025-11-04-14-16-43/osm.truck.rou.xml"/>
    <prefix value="truck"/>
    <trip-attributes value="departLane=&quot;best&quot;"/>
    <fringe-start-attributes value="departSpeed=&quot;max&quot;"/>
    <vehicle-class value="truck"/>
    <fringe-factor value="5"/>
    <edge-permission value="truck"/>
    <via-edge-types value="highway.motorway,highway.motorway_link,highway.trunk_link,highway.primary_link,highway.secondary_link,highway.tertiary_link"/>
    <seed value="45"/>
    <min-distance value="600.0"/>
    <min-distance.fringe value="10.0"/>
    <remove-loops value="True"/>
    <insertion-density value="8.0"/>
</configuration>
-->

<routes xmlns:xsi="http://www.w3.org/2001/XMLSchema-instance" xsi:noNamespaceSchemaLocation="http://sumo.dlr.de/xsd/routes_file.xsd">
    <vType id="truck_truck" vClass="truck"/>
    <trip id="truck0" depart="0.00" from="-568955931#2" to="1312476767#1" departLane="best" type="truck_truck" departSpeed="max"/>
    <trip id="truck1" depart="3.24" from="-258136093#2" to="-586373149#4" departLane="best" type="truck_truck"/>
    <trip id="truck2" depart="6.48" from="-230283484#3" to="-109505208#4" departLane="best" type="truck_truck"/>
    <trip id="truck3" depart="9.72" from="-579914859" to="-258325414#1" departLane="best" type="truck_truck" departSpeed="max"/>
    <trip id="truck4" depart="12.96" from="-586373149#1" to="444761097#1" departLane="best" type="truck_truck"/>
    <trip id="truck5" depart="16.20" from="-1436311571" to="33197140#3" departLane="best" type="truck_truck"/>
    <trip id="truck6" depart="19.44" from="-282891298#3" to="579914857#1" departLane="best" type="truck_truck"/>
    <trip id="truck7" depart="22.68" from="444805127#0" to="-367762382#0" departLane="best" type="truck_truck" departSpeed="max"/>
    <trip id="truck8" depart="25.92" from="586569891" to="368096547#3" departLane="best" type="truck_truck" departSpeed="max"/>
    <trip id="truck9" depart="29.17" from="368096547#1" to="628456652#1" departLane="best" type="truck_truck"/>
    <trip id="truck10" depart="32.41" from="-338769951#1" to="-444798085#0" departLane="best" type="truck_truck"/>
    <trip id="truck11" depart="35.65" from="568955932" to="704235785#1" departLane="best" type="truck_truck" departSpeed="max"/>
    <trip id="truck12" depart="38.89" from="515235348#3" to="-586319513" departLane="best" type="truck_truck"/>
    <trip id="truck13" depart="42.13" from="-674860564" to="587800915#3" departLane="best" type="truck_truck" departSpeed="max"/>
    <trip id="truck14" depart="45.37" from="444806104#0" to="340934813#0" departLane="best" type="truck_truck" departSpeed="max"/>
    <trip id="truck15" depart="48.61" from="282891298#2" to="-230244699#0" departLane="best" type="truck_truck"/>
    <trip id="truck16" depart="51.85" from="337012258#1" to="-579914855#0" departLane="best" type="truck_truck"/>
    <trip id="truck17" depart="55.09" from="-33197215#4" to="109505207#1" departLane="best" type="truck_truck"/>
    <trip id="truck18" depart="58.33" from="-124893290#1" to="586657042#1" departLane="best" type="truck_truck"/>
    <trip id="truck19" depart="61.57" from="350146691#0" to="230218171#1" departLane="best" type="truck_truck"/>
    <trip id="truck20" depart="64.81" from="-340934820#3" to="33196780#1" departLane="best" type="truck_truck"/>
    <trip id="truck21" depart="68.05" from="-258245655#3" to="33197140#1" departLane="best" type="truck_truck"/>
    <trip id="truck22" depart="71.29" from="340934813#0" to="230218154#0" departLane="best" type="truck_truck"/>
    <trip id="truck23" depart="74.53" from="359450386#0" to="1369976043" departLane="best" type="truck_truck"/>
    <trip id="truck24" depart="77.77" from="-336846299#1" to="-116690480#0" departLane="best" type="truck_truck"/>
    <trip id="truck25" depart="81.02" from="850677551#1" to="586557577#1" departLane="best" type="truck_truck"/>
    <trip id="truck26" depart="84.26" from="-258226055#0" to="292749336#2" departLane="best" type="truck_truck"/>
    <trip id="truck27" depart="87.50" from="579914857#0" to="615037268#4" departLane="best" type="truck_truck" departSpeed="max"/>
    <trip id="truck28" depart="90.74" from="-230244710#0" to="-282840323#6" departLane="best" type="truck_truck"/>
    <trip id="truck29" depart="93.98" from="-704235786#0" to="282840327#2" departLane="best" type="truck_truck"/>
    <trip id="truck30" depart="97.22" from="-258136093#4" to="362871968#0" departLane="best" type="truck_truck"/>
    <trip id="truck31" depart="100.46" from="515235349#4" to="1043469298#1" departLane="best" type="truck_truck"/>
    <trip id="truck32" depart="103.70" from="586556424#0" to="-615037268#1" departLane="best" type="truck_truck"/>
    <trip id="truck33" depart="106.94" from="388949441#3" to="614635704" departLane="best" type="truck_truck"/>
    <trip id="truck34" depart="110.18" from="-230283484#2" to="258656153#2" departLane="best" type="truck_truck"/>
    <trip id="truck35" depart="113.42" from="-444477816#1" to="-586657041" departLane="best" type="truck_truck" departSpeed="max"/>
    <trip id="truck36" depart="116.66" from="631920552#0" to="-615037323" departLane="best" type="truck_truck"/>
    <trip id="truck37" depart="119.90" from="232766712" to="367762382#1" departLane="best" type="truck_truck" departSpeed="max"/>
    <trip id="truck38" depart="123.14" from="362871972#3" to="258656153#3" departLane="best" type="truck_truck"/>
    <trip id="truck39" depart="126.38" from="615037312" to="337540076#0" departLane="best" type="truck_truck"/>
    <trip id="truck40" depart="129.62" from="615037284#1" to="-368190050#0" departLane="best" type="truck_truck"/>
    <trip id="truck41" depart="132.87" from="341096510#1" to="586326406#2" departLane="best" type="truck_truck"/>
    <trip id="truck42" depart="136.11" from="630358350#0" to="586314122#2" departLane="best" type="truck_truck"/>
    <trip id="truck43" depart="139.35" from="898487493#1" to="1117713205" departLane="best" type="truck_truck"/>
    <trip id="truck44" depart="142.59" from="-644261214" to="586373149#7" departLane="best" type="truck_truck"/>
    <trip id="truck45" depart="145.83" from="-230244705#0" to="-586595146#0" departLane="best" type="truck_truck"/>
    <trip id="truck46" depart="149.07" from="368096545#0" to="-253581892" departLane="best" type="truck_truck" departSpeed="max"/>
    <trip id="truck47" depart="152.31" from="-368104091#4" to="-630358350#3" departLane="best" type="truck_truck"/>
    <trip id="truck48" depart="155.55" from="444806103" to="340934820#6" departLane="best" type="truck_truck" departSpeed="max"/>
    <trip id="truck49" depart="158.79" from="-258245655#1" to="338769951#3" departLane="best" type="truck_truck"/>
    <trip id="truck50" depart="162.03" from="362714489" to="33197215#1" departLane="best" type="truck_truck" departSpeed="max"/>
    <trip id="truck51" depart="165.27" from="586314122#5" to="890146629#0" departLane="best" type="truck_truck"/>
    <trip id="truck52" depart="168.51" from="444477814#0" to="880026450" departLane="best" type="truck_truck" departSpeed="max"/>
    <trip id="truck53" depart="171.75" from="586657042#3" to="340934820#5" departLane="best" type="truck_truck"/>
    <trip id="truck54" depart="174.99" from="337540065" to="-310912789" departLane="best" type="truck_truck"/>
    <trip id="truck55" depart="178.23" from="258325393#2" to="-586373149#6" departLane="best" type="truck_truck"/>
    <trip id="truck56" depart="181.47" from="260062647#0" to="628456652#1" departLane="best" type="truck_truck" departSpeed="max"/>
    <trip id="truck57" depart="184.71" from="-631906579#1" to="-116690479#1" departLane="best" type="truck_truck"/>
    <trip id="truck58" depart="187.96" from="-260062647#1" to="232725194" departLane="best" type="truck_truck"/>
    <trip id="truck59" depart="191.20" from="116690480#0" to="33197215#3" departLane="best" type="truck_truck" departSpeed="max"/>
    <trip id="truck60" depart="194.44" from="230244707" to="-515235347" departLane="best" type="truck_truck" departSpeed="max"/>
    <trip id="truck61" depart="197.68" from="258136093#0" to="-444475429#1" departLane="best" type="truck_truck"/>
    <trip id="truck62" depart="200.92" from="-258226055#3" to="628504012#2" departLane="best" type="truck_truck"/>
    <trip id="truck63" depart="204.16" from="359450380#0" to="109505207#2" departLane="best" type="truck_truck"/>
    <trip id="truck64" depart="207.40" from="212414966" to="-258245655#5" departLane="best" type="truck_truck" departSpeed="max"/>
    <trip id="truck65" depart="210.64" from="109505207#1" to="-340934820#6" departLane="best" type="truck_truck"/>
    <trip id="truck66" depart="213.88" from="232766712" to="586659413" departLane="best" type="truck_truck" departSpeed="max"/>
    <trip id="truck67" depart="217.12" from="-259202692" to="898487481#1" departLane="best" type="truck_truck" departSpeed="max"/>
    <trip id="truck68" depart="220.36" from="368096545#0" to="-631863278#1" departLane="best" type="truck_truck" departSpeed="max"/>
    <trip id="truck69" depart="223.60" from="-704235789" to="586664246#1" departLane="best" type="truck_truck"/>
    <trip id="truck70" depart="226.84" from="337012258#1" to="-116690480#0" departLane="best" type="truck_truck"/>
    <trip id="truck71" depart="230.08" from="-154091493#0" to="586557573#1" departLane="best" type="truck_truck"/>
    <trip id="truck72" depart="233.32" from="282891298#3" to="444798085#0" departLane="best" type="truck_truck"/>
    <trip id="truck73" depart="236.56" from="230244705#0" to="368096544#0" departLane="best" type="truck_truck"/>
    <trip id="truck74" depart="239.81" from="-615037268#0" to="-586657906#0" departLane="best" type="truck_truck"/>
    <trip id="truck75" depart="243.05" from="-611491296#3" to="-579914855#0" departLane="best" type="truck_truck"/>
    <trip id="truck76" depart="246.29" from="631863278#0" to="587800915#3" departLane="best" type="truck_truck" departSpeed="max"/>
    <trip id="truck77" depart="249.53" from="258226032#2" to="-230183328#0" departLane="best" type="truck_truck"/>
    <trip id="truck78" depart="252.77" from="628504012#0" to="586319746#1" departLane="best" type="truck_truck"/>
    <trip id="truck79" depart="256.01" from="33768751" to="704235787" departLane="best" type="truck_truck"/>
    <trip id="truck80" depart="259.25" from="515714957" to="282891298#0" departLane="best" type="truck_truck"/>
    <trip id="truck81" depart="262.49" from="-586664246#1" to="33196780#3" departLane="best" type="truck_truck"/>
    <trip id="truck82" depart="265.73" from="-337540068#2" to="-258245655#4" departLane="best" type="truck_truck" departSpeed="max"/>
    <trip id="truck83" depart="268.97" from="890146632" to="615037324" departLane="best" type="truck_truck"/>
    <trip id="truck84" depart="272.21" from="-586313403#0" to="-258226055#1" departLane="best" type="truck_truck"/>
    <trip id="truck85" depart="275.45" from="-628812311#0" to="515235348#3" departLane="best" type="truck_truck"/>
    <trip id="truck86" depart="278.69" from="629067608#0" to="1043469298#1" departLane="best" type="truck_truck"/>
    <trip id="truck87" depart="281.93" from="586568472" to="364177895#1" departLane="best" type="truck_truck" departSpeed="max"/>
    <trip id="truck88" depart="285.17" from="890146631#2" to="-282891298#2" departLane="best" type="truck_truck"/>
    <trip id="truck89" depart="288.41" from="-258226053#2" to="-258656153#3" departLane="best" type="truck_truck"/>
    <trip id="truck90" depart="291.65" from="-1121692938#2" to="230283483#1" departLane="best" type="truck_truck" departSpeed="max"/>
    <trip id="truck91" depart="294.90" from="-1118659370#1" to="-227131720#0" departLane="best" type="truck_truck"/>
    <trip id="truck92" depart="298.14" from="-444761097#1" to="1049377330#0" departLane="best" type="truck_truck" departSpeed="max"/>
    <trip id="truck93" depart="301.38" from="338769951#0" to="-230218179#1" departLane="best" type="truck_truck"/>
    <trip id="truck94" depart="304.62" from="-341096510#1" to="586367055#1" departLane="best" type="truck_truck"/>
    <trip id="truck95" depart="307.86" from="154091491" to="1369976043" departLane="best" type="truck_truck"/>
    <trip id="truck96" depart="311.10" from="-33836187#7" to="1117713209#1" departLane="best" type="truck_truck"/>
    <trip id="truck97" depart="314.34" from="631906580" to="-341096505" departLane="best" type="truck_truck" departSpeed="max"/>
    <trip id="truck98" depart="317.58" from="-739723515#0" to="-340934816#3" departLane="best" type="truck_truck"/>
    <trip id="truck99" depart="320.82" from="-579914859" to="-368096545#2" departLane="best" type="truck_truck" departSpeed="max"/>
    <trip id="truck100" depart="324.06" from="341096510#1" to="444805123#1" departLane="best" type="truck_truck"/>
    <trip id="truck101" depart="327.30" from="586664246#0" to="-282840329" departLane="best" type="truck_truck"/>
    <trip id="truck102" depart="330.54" from="898487493#2" to="359450388" departLane="best" type="truck_truck"/>
    <trip id="truck103" depart="333.78" from="-568955931#2" to="341096505" departLane="best" type="truck_truck" departSpeed="max"/>
    <trip id="truck104" depart="337.02" from="33197215#5" to="-586574694#1" departLane="best" type="truck_truck"/>
    <trip id="truck105" depart="340.26" from="-568973576" to="-258136093#4" departLane="best" type="truck_truck" departSpeed="max"/>
    <trip id="truck106" depart="343.50" from="-368104071#4" to="586657041" departLane="best" type="truck_truck" departSpeed="max"/>
    <trip id="truck107" depart="346.75" from="-628812311#4" to="337540076#2" departLane="best" type="truck_truck"/>
    <trip id="truck108" depart="349.99" from="1305093055#1" to="-426788207" departLane="best" type="truck_truck"/>
    <trip id="truck109" depart="353.23" from="1117713206" to="-368104071#2" departLane="best" type="truck_truck"/>
    <trip id="truck110" depart="356.47" from="1117713203#0" to="-340934820#4" departLane="best" type="truck_truck"/>
    <trip id="truck111" depart="359.71" from="-282840328" to="579777169" departLane="best" type="truck_truck"/>
    <trip id="truck112" depart="362.95" from="586556424#2" to="154091493#1" departLane="best" type="truck_truck"/>
    <trip id="truck113" depart="366.19" from="232725196" to="-1121692938#0" departLane="best" type="truck_truck" departSpeed="max"/>
    <trip id="truck114" depart="369.43" from="362871968#2" to="204122962" departLane="best" type="truck_truck"/>
    <trip id="truck115" depart="372.67" from="515235349#0" to="568973576" departLane="best" type="truck_truck"/>
    <trip id="truck116" depart="375.91" from="-611491296#0" to="230183337#0" departLane="best" type="truck_truck"/>
    <trip id="truck117" depart="379.15" from="569991741#0" to="615037300" departLane="best" type="truck_truck"/>
    <trip id="truck118" depart="382.39" from="230218149#0" to="368096547#1" departLane="best" type="truck_truck" departSpeed="max"/>
    <trip id="truck119" depart="385.63" from="258325393#1" to="-368104091#3" departLane="best" type="truck_truck"/>
    <trip id="truck120" depart="388.87" from="586657908#2" to="232725195#1" departLane="best" type="truck_truck"/>
    <trip id="truck121" depart="392.11" from="-338769951#3" to="258325387#2" departLane="best" type="truck_truck"/>
    <trip id="truck122" depart="395.35" from="-337540076#1" to="336846301#1" departLane="best" type="truck_truck"/>
    <trip id="truck123" depart="398.60" from="-33196780#1" to="515235349#0" departLane="best" type="truck_truck"/>
    <trip id="truck124" depart="401.84" from="33197140#2" to="1122773432#1" departLane="best" type="truck_truck"/>
    <trip id="truck125" depart="405.08" from="1312476767#1" to="880026449" departLane="best" type="truck_truck"/>
    <trip id="truck126" depart="408.32" from="-586330327#1" to="258226051" departLane="best" type="truck_truck"/>
    <trip id="truck127" depart="411.56" from="1117713208" to="674860564" departLane="best" type="truck_truck"/>
    <trip id="truck128" depart="414.80" from="-631904730" to="-1049377330#4" departLane="best" type="truck_truck"/>
    <trip id="truck129" depart="418.04" from="116690480#1" to="232778101#2" departLane="best" type="truck_truck"/>
    <trip id="truck130" depart="421.28" from="611491296#2" to="586314122#6" departLane="best" type="truck_truck"/>
    <trip id="truck131" depart="424.52" from="359450380#1" to="-631920552#3" departLane="best" type="truck_truck"/>
    <trip id="truck132" depart="427.76" from="616824387#3" to="444761097#1" departLane="best" type="truck_truck"/>
    <trip id="truck133" depart="431.00" from="1117713207#0" to="629067609#1" departLane="best" type="truck_truck"/>
    <trip id="truck134" depart="434.24" from="587800915#2" to="850677551#3" departLane="best" type="truck_truck"/>
    <trip id="truck135" depart="437.48" from="109505204#0" to="-628812311#5" departLane="best" type="truck_truck"/>
    <trip id="truck136" depart="440.72" from="631863278#0" to="586367055#2" departLane="best" type="truck_truck" departSpeed="max"/>
    <trip id="truck137" depart="443.96" from="-350146688#0" to="336422160#0" departLane="best" type="truck_truck"/>
    <trip id="truck138" depart="447.20" from="615037317" to="444805127#1" departLane="best" type="truck_truck"/>
    <trip id="truck139" depart="450.44" from="230244705#1" to="1118659369" departLane="best" type="truck_truck"/>
    <trip id="truck140" depart="453.69" from="629067608#1" to="-368027055" departLane="best" type="truck_truck"/>
    <trip id="truck141" depart="456.93" from="444477330" to="359450382#2" departLane="best" type="truck_truck" departSpeed="max"/>
    <trip id="truck142" depart="460.17" from="615037268#5" to="-444805125#0" departLane="best" type="truck_truck"/>
    <trip id="truck143" depart="463.41" from="-586574698#2" to="337540062#1" departLane="best" type="truck_truck"/>
    <trip id="truck144" depart="466.65" from="-282840328" to="-556909867#1" departLane="best" type="truck_truck"/>
    <trip id="truck145" depart="469.89" from="-258656153#1" to="367762382#0" departLane="best" type="truck_truck"/>
    <trip id="truck146" depart="473.13" from="230218169" to="-258226053#1" departLane="best" type="truck_truck" departSpeed="max"/>
    <trip id="truck147" depart="476.37" from="350146688#3" to="-444477330" departLane="best" type="truck_truck"/>
    <trip id="truck148" depart="479.61" from="362871972#3" to="-586373149#0" departLane="best" type="truck_truck"/>
    <trip id="truck149" depart="482.85" from="886398469#1" to="-230244707" departLane="best" type="truck_truck"/>
    <trip id="truck150" depart="486.09" from="-229159582" to="-615037318#1" departLane="best" type="truck_truck"/>
    <trip id="truck151" depart="489.33" from="-282891298#1" to="-282840327#2" departLane="best" type="truck_truck"/>
    <trip id="truck152" depart="492.57" from="515714958#2" to="241697930" departLane="best" type="truck_truck"/>
    <trip id="truck153" depart="495.81" from="368096545#0" to="-337540075" departLane="best" type="truck_truck" departSpeed="max"/>
    <trip id="truck154" depart="499.05" from="33836187#4" to="555600348#0" departLane="best" type="truck_truck"/>
    <trip id="truck155" depart="502.29" from="-258136097#1" to="-337540075" departLane="best" type="truck_truck"/>
    <trip id="truck156" depart="505.54" from="154091493#0" to="-586326406#3" departLane="best" type="truck_truck"/>
    <trip id="truck157" depart="508.78" from="586568472" to="258136097#2" departLane="best" type="truck_truck" departSpeed="max"/>
    <trip id="truck158" depart="512.02" from="212722206#3" to="-615037320#1" departLane="best" type="truck_truck"/>
    <trip id="truck159" depart="515.26" from="-33836187#0" to="-340934814#0" departLane="best" type="truck_truck"/>
    <trip id="truck160" depart="518.50" from="-568973576" to="-109565746#1" departLane="best" type="truck_truck" departSpeed="max"/>
    <trip id="truck161" depart="521.74" from="-337540076#2" to="258325416#0" departLane="best" type="truck_truck"/>
    <trip id="truck162" depart="524.98" from="230244710#1" to="154091493#1" departLane="best" type="truck_truck"/>
    <trip id="truck163" depart="528.22" from="258226032#0" to="258245655#3" departLane="best" type="truck_truck"/>
    <trip id="truck164" depart="531.46" from="988474314" to="230218179#0" departLane="best" type="truck_truck"/>
    <trip id="truck165" depart="534.70" from="586319747#0" to="230283483#5" departLane="best" type="truck_truck"/>
    <trip id="truck166" depart="537.94" from="586593626" to="674860564" departLane="best" type="truck_truck"/>
    <trip id="truck167" depart="541.18" from="-359450382#4" to="615037267" departLane="best" type="truck_truck"/>
    <trip id="truck168" depart="544.42" from="337540075" to="615037268#4" departLane="best" type="truck_truck" departSpeed="max"/>
    <trip id="truck169" depart="547.66" from="444806104#0" to="586594759#0" departLane="best" type="truck_truck" departSpeed="max"/>
    <trip id="truck170" depart="550.90" from="-579914859" to="-586323859" departLane="best" type="truck_truck" departSpeed="max"/>
    <trip id="truck171" depart="554.14" from="340934820#4" to="-586574696#0" departLane="best" type="truck_truck"/>
    <trip id="truck172" depart="557.39" from="258226050#0" to="586556424#0" departLane="best" type="truck_truck" departSpeed="max"/>
    <trip id="truck173" depart="560.63" from="-630358350#3" to="898487493#1" departLane="best" type="truck_truck"/>
    <trip id="truck174" depart="563.87" from="586574698#2" to="-1121692938#0" departLane="best" type="truck_truck"/>
    <trip id="truck175" depart="567.11" from="-258226055#5" to="515235346#1" departLane="best" type="truck_truck"/>
    <trip id="truck176" depart="570.35" from="-368104091#5" to="888879165#1" departLane="best" type="truck_truck"/>
    <trip id="truck177" depart="573.59" from="253581894#4" to="-260062647#0" departLane="best" type="truck_truck"/>
    <trip id="truck178" depart="576.83" from="-586592650#0" to="340934820#4" departLane="best" type="truck_truck"/>
    <trip id="truck179" depart="580.07" from="-258136096#1" to="586373149#2" departLane="best" type="truck_truck"/>
    <trip id="truck180" depart="583.31" from="367762382#0" to="34990516#1" departLane="best" type="truck_truck"/>
    <trip id="truck181" depart="586.55" from="-586574696#1" to="-258245655#8" departLane="best" type="truck_truck"/>
    <trip id="truck182" depart="589.79" from="253581894#1" to="340934820#4" departLane="best" type="truck_truck"/>
    <trip id="truck183" depart="593.03" from="630358350#6" to="338769951#1" departLane="best" type="truck_truck"/>
    <trip id="truck184" depart="596.27" from="444806104#0" to="1117713205" departLane="best" type="truck_truck" departSpeed="max"/>
    <trip id="truck185" depart="599.51" from="-444475429#3" to="232725194" departLane="best" type="truck_truck"/>
    <trip id="truck186" depart="602.75" from="628812311#10" to="253581894#1" departLane="best" type="truck_truck"/>
    <trip id="truck187" depart="605.99" from="-230218171#1" to="336846301#1" departLane="best" type="truck_truck"/>
    <trip id="truck188" depart="609.23" from="586575935" to="1312476763" departLane="best" type="truck_truck" departSpeed="max"/>
    <trip id="truck189" depart="612.48" from="586314122#4" to="154091491" departLane="best" type="truck_truck"/>
    <trip id="truck190" depart="615.72" from="117467837" to="1009076942" departLane="best" type="truck_truck"/>
    <trip id="truck191" depart="618.96" from="611491296#2" to="898487481#1" departLane="best" type="truck_truck"/>
    <trip id="truck192" depart="622.20" from="33195669" to="367762382#4" departLane="best" type="truck_truck" departSpeed="max"/>
    <trip id="truck193" depart="625.44" from="630358621#3" to="-116690479#2" departLane="best" type="truck_truck"/>
    <trip id="truck194" depart="628.68" from="-444477816#1" to="586368631" departLane="best" type="truck_truck" departSpeed="max"/>
    <trip id="truck195" depart="631.92" from="586313403#8" to="258325416#0" departLane="best" type="truck_truck"/>
    <trip id="truck196" depart="635.16" from="629067608#0" to="258245655#1" departLane="best" type="truck_truck"/>
    <trip id="truck197" depart="638.40" from="-426788207" to="586313403#1" departLane="best" type="truck_truck"/>
    <trip id="truck198" depart="641.64" from="-586319362#2" to="-368104071#1" departLane="best" type="truck_truck"/>
    <trip id="truck199" depart="644.88" from="-568973576" to="-336846299#1" departLane="best" type="truck_truck" departSpeed="max"/>
    <trip id="truck200" depart="648.12" from="124893290#0" to="-1012133729" departLane="best" type="truck_truck"/>
    <trip id="truck201" depart="651.36" from="-555601438#2" to="204122962" departLane="best" type="truck_truck" departSpeed="max"/>
    <trip id="truck202" depart="654.60" from="586330327#1" to="587800918#2" departLane="best" type="truck_truck"/>
    <trip id="truck203" depart="657.84" from="230183341#1" to="-230244707" departLane="best" type="truck_truck"/>
    <trip id="truck204" depart="661.08" from="-515235348#0" to="-33197140#0" departLane="best" type="truck_truck"/>
    <trip id="truck205" depart="664.33" from="-204122962" to="-644261214" departLane="best" type="truck_truck" departSpeed="max"/>
    <trip id="truck206" depart="667.57" from="-555601438#2" to="-368096545#0" departLane="best" type="truck_truck" departSpeed="max"/>
    <trip id="truck207" depart="670.81" from="880026450" to="-586368634#1" departLane="best" type="truck_truck"/>
    <trip id="truck208" depart="674.05" from="368104091#5" to="-628812311#4" departLane="best" type="truck_truck"/>
    <trip id="truck209" depart="677.29" from="-586657906#1" to="-630358621#3" departLane="best" type="truck_truck"/>
    <trip id="truck210" depart="680.53" from="212414966" to="-631906579#0" departLane="best" type="truck_truck" departSpeed="max"/>
    <trip id="truck211" depart="683.77" from="628504012#3" to="-258136097#2" departLane="best" type="truck_truck"/>
    <trip id="truck212" depart="687.01" from="586373149#9" to="368096546#0" departLane="best" type="truck_truck"/>
    <trip id="truck213" depart="690.25" from="586657042#0" to="-253581894#3" departLane="best" type="truck_truck"/>
    <trip id="truck214" depart="693.49" from="-615037251" to="292764136" departLane="best" type="truck_truck"/>
    <trip id="truck215" depart="696.73" from="-615037273" to="-350146685#0" departLane="best" type="truck_truck"/>
    <trip id="truck216" depart="699.97" from="336846301#1" to="880026446" departLane="best" type="truck_truck"/>
    <trip id="truck217" depart="703.21" from="-515235346#1" to="-586574694#1" departLane="best" type="truck_truck"/>
    <trip id="truck218" depart="706.45" from="-258245655#3" to="568955931#1" departLane="best" type="truck_truck"/>
    <trip id="truck219" depart="709.69" from="888879165#3" to="615037284#0" departLane="best" type="truck_truck"/>
    <trip id="truck220" depart="712.93" from="-109505208#0" to="586332610" departLane="best" type="truck_truck"/>
    <trip id="truck221" depart="716.17" from="631863278#0" to="-368096545#3" departLane="best" type="truck_truck" departSpeed="max"/>
    <trip id="truck222" depart="719.42" from="-444805121#0" to="-350146685#1" departLane="best" type="truck_truck"/>
    <trip id="truck223" depart="722.66" from="586368634#0" to="-258656153#3" departLane="best" type="truck_truck"/>
    <trip id="truck224" depart="725.90" from="-260062647#1" to="579914859" departLane="best" type="truck_truck"/>
    <trip id="truck225" depart="729.14" from="586657906#0" to="579777168#1" departLane="best" type="truck_truck" departSpeed="max"/>
    <trip id="truck226" depart="732.38" from="-586326406#2" to="230183351#2" departLane="best" type="truck_truck"/>
    <trip id="truck227" depart="735.62" from="586569891" to="888879165#0" departLane="best" type="truck_truck" departSpeed="max"/>
    <trip id="truck228" depart="738.86" from="1049377330#3" to="282840327#0" departLane="best" type="truck_truck"/>
    <trip id="truck229" depart="742.10" from="586323859" to="630358350#2" departLane="best" type="truck_truck" departSpeed="max"/>
    <trip id="truck230" depart="745.34" from="-586664246#1" to="-359450381" departLane="best" type="truck_truck"/>
    <trip id="truck231" depart="748.58" from="630358350#5" to="-340934816#2" departLane="best" type="truck_truck"/>
    <trip id="truck232" depart="751.82" from="-630358350#5" to="-555601438#1" departLane="best" type="truck_truck"/>
    <trip id="truck233" depart="755.06" from="579777168#1" to="338769951#0" departLane="best" type="truck_truck"/>
    <trip id="truck234" depart="758.30" from="-628812311#5" to="-444477816#0" departLane="best" type="truck_truck"/>
    <trip id="truck235" depart="761.54" from="555604170" to="-258245655#8" departLane="best" type="truck_truck" departSpeed="max"/>
    <trip id="truck236" depart="764.78" from="-116690479#3" to="630358350#6" departLane="best" type="truck_truck"/>
    <trip id="truck237" depart="768.02" from="258656153#0" to="-586574698#0" departLane="best" type="truck_truck"/>
    <trip id="truck238" depart="771.27" from="-33197140#1" to="586319363#0" departLane="best" type="truck_truck"/>
    <trip id="truck239" depart="774.51" from="-368096547#3" to="282891298#2" departLane="best" type="truck_truck" departSpeed="max"/>
    <trip id="truck240" depart="777.75" from="258226029#2" to="1118659366" departLane="best" type="truck_truck"/>
    <trip id="truck241" depart="780.99" from="586595145" to="1121692938#2" departLane="best" type="truck_truck"/>