<?xml version="1.0" encoding="UTF-8"?>

<!-- generated on 2025-08-11 19:32:41.195259 by osmWebWizard.py UNKNOWN
<configuration>
    <net-file value="/home/sour/Sumo/2025-08-11-19-32-20/osm.net.xml.gz"/>
    <output-trip-file value="/home/sour/Sumo/2025-08-11-19-32-20/osm.passenger.trips.xml"/>
    <route-file value="/home/sour/Sumo/2025-08-11-19-32-20/osm.passenger.rou.xml"/>
    <prefix value="veh"/>
    <trip-attributes value="departLane=&quot;best&quot;"/>
    <fringe-start-attributes value="departSpeed=&quot;max&quot;"/>
    <vehicle-class value="passenger"/>
    <lanes value="True"/>
    <fringe-factor value="5"/>
    <allow-fringe.min-length value="1000.0"/>
    <edge-permission value="passenger"/>
    <via-edge-types value="highway.motorway,highway.motorway_link,highway.trunk_link,highway.primary_link,highway.secondary_link,highway.tertiary_link"/>
    <seed value="44"/>
    <min-distance value="300.0"/>
    <min-distance.fringe value="10.0"/>
    <remove-loops value="True"/>
    <insertion-density value="100.0"/>
</configuration>
-->

<routes xmlns:xsi="http://www.w3.org/2001/XMLSchema-instance" xsi:noNamespaceSchemaLocation="http://sumo.dlr.de/xsd/routes_file.xsd">
    <vType id="veh_passenger" vClass="passenger"/>
    <trip id="veh0" depart="0.00" from="-795671604#8" to="227019974#1" departLane="best" type="veh_passenger"/>
    <trip id="veh1" depart="0.72" from="586664247#0" to="-350146685#0" departLane="best" type="veh_passenger"/>
    <trip id="veh2" depart="1.44" from="-33768805#0" to="-103765643#3" departLane="best" type="veh_passenger"/>
    <trip id="veh3" depart="2.15" from="-34990515#1" to="1324287528#2" departLane="best" type="veh_passenger"/>
    <trip id="veh4" depart="2.87" from="898487483#0" to="367700934#3" departLane="best" type="veh_passenger"/>
    <trip id="veh5" depart="3.59" from="-620865939" to="-795671604#7" departLane="best" type="veh_passenger" departSpeed="max"/>
    <trip id="veh6" depart="4.31" from="367700883#2" to="-615037320#1" departLane="best" type="veh_passenger"/>
    <trip id="veh7" depart="5.03" from="-226946949" to="586659717" departLane="best" type="veh_passenger" departSpeed="max"/>
    <trip id="veh8" depart="5.74" from="337540075" to="-335575150" departLane="best" type="veh_passenger" departSpeed="max"/>
    <trip id="veh9" depart="6.46" from="-226946947" to="-323987231#1" departLane="best" type="veh_passenger" departSpeed="max"/>
    <trip id="veh10" depart="7.18" from="620994315#0" to="-331675474" departLane="best" type="veh_passenger"/>
    <trip id="veh11" depart="7.90" from="33768805#5" to="795671604#0" departLane="best" type="veh_passenger"/>
    <trip id="veh12" depart="8.61" from="-109505208#4" to="-621949168#1" departLane="best" type="veh_passenger"/>
    <trip id="veh13" depart="9.33" from="116690596#0" to="620771557" departLane="best" type="veh_passenger" departSpeed="max"/>
    <trip id="veh14" depart="10.05" from="-367700934#0" to="-368104091#5" departLane="best" type="veh_passenger"/>
    <trip id="veh15" depart="10.77" from="362871972#3" to="586657042#2" departLane="best" type="veh_passenger"/>
    <trip id="veh16" depart="11.49" from="109505204#1" to="-116690480#2" departLane="best" type="veh_passenger"/>
    <trip id="veh17" depart="12.20" from="368027055" to="368104071#4" departLane="best" type="veh_passenger"/>
    <trip id="veh18" depart="12.92" from="350146685#1" to="-615037321" departLane="best" type="veh_passenger"/>
    <trip id="veh19" depart="13.64" from="586657042#1" to="34990514#2" departLane="best" type="veh_passenger"/>
    <trip id="veh20" depart="14.36" from="337132049" to="227019974#1" departLane="best" type="veh_passenger" departSpeed="max"/>
    <trip id="veh21" depart="15.08" from="-368104071#5" to="109505207#1" departLane="best" type="veh_passenger"/>
    <trip id="veh22" depart="15.79" from="462987553" to="367700883#2" departLane="best" type="veh_passenger"/>
    <trip id="veh23" depart="16.51" from="-620768869#3" to="586657042#3" departLane="best" type="veh_passenger"/>
    <trip id="veh24" depart="17.23" from="586657908#0" to="-116690593#0" departLane="best" type="veh_passenger"/>
    <trip id="veh25" depart="17.95" from="-34990515#2" to="-368027034" departLane="best" type="veh_passenger"/>
    <trip id="veh26" depart="18.66" from="898487494#1" to="-620849594" departLane="best" type="veh_passenger"/>
    <trip id="veh27" depart="19.38" from="-367762382#2" to="-335575150" departLane="best" type="veh_passenger"/>
    <trip id="veh28" depart="20.10" from="-620768866#1" to="586659413" departLane="best" type="veh_passenger" departSpeed="max"/>
    <trip id="veh29" depart="20.82" from="103765643#1" to="-116690596#1" departLane="best" type="veh_passenger"/>
    <trip id="veh30" depart="21.54" from="33768805#3" to="-337132049" departLane="best" type="veh_passenger"/>
    <trip id="veh31" depart="22.25" from="-367700883#1" to="34990516#2" departLane="best" type="veh_passenger"/>
    <trip id="veh32" depart="22.97" from="586657042#3" to="341456563" departLane="best" type="veh_passenger"/>
    <trip id="veh33" depart="23.69" from="-555601438#2" to="350146685#1" departLane="best" type="veh_passenger" departSpeed="max"/>
    <trip id="veh34" depart="24.41" from="-444826919#0" to="-103765643#0" departLane="best" type="veh_passenger"/>
    <trip id="veh35" depart="25.13" from="-444826919#1" to="367700883#3" departLane="best" type="veh_passenger"/>
    <trip id="veh36" depart="25.84" from="33836788#0" to="-367194255#3" departLane="best" type="veh_passenger"/>
    <trip id="veh37" depart="26.56" from="586657908#1" to="586657908#3" departLane="best" type="veh_passenger"/>
    <trip id="veh38" depart="27.28" from="-462987552#0" to="628456652#1" departLane="best" type="veh_passenger"/>
    <trip id="veh39" depart="28.00" from="-444811602" to="-1408953126#0" departLane="best" type="veh_passenger" departSpeed="max"/>
    <trip id="veh40" depart="28.71" from="1324287528#1" to="587800918#0" departLane="best" type="veh_passenger"/>
    <trip id="veh41" depart="29.43" from="337132072#2" to="227100507#0" departLane="best" type="veh_passenger"/>
    <trip id="veh42" depart="30.15" from="1304287974" to="-444826908#3" departLane="best" type="veh_passenger"/>
    <trip id="veh43" depart="30.87" from="-586658921" to="-795671604#6" departLane="best" type="veh_passenger"/>
    <trip id="veh44" depart="31.59" from="292749336#0" to="620863350" departLane="best" type="veh_passenger"/>
    <trip id="veh45" depart="32.30" from="-226946949" to="-368104091#0" departLane="best" type="veh_passenger" departSpeed="max"/>
    <trip id="veh46" depart="33.02" from="620862579" to="362714491" departLane="best" type="veh_passenger"/>
    <trip id="veh47" depart="33.74" from="-226946949" to="1049377329" departLane="best" type="veh_passenger" departSpeed="max"/>
    <trip id="veh48" depart="34.46" from="34990516#2" to="620768869#1" departLane="best" type="veh_passenger"/>
    <trip id="veh49" depart="35.18" from="227100507#0" to="586657908#1" departLane="best" type="veh_passenger"/>
    <trip id="veh50" depart="35.89" from="-368190050#0" to="367762382#2" departLane="best" type="veh_passenger"/>
    <trip id="veh51" depart="36.61" from="323987231#0" to="-227100505#0" departLane="best" type="veh_passenger" departSpeed="max"/>
    <trip id="veh52" depart="37.33" from="-444826908#3" to="-888879166" departLane="best" type="veh_passenger"/>
    <trip id="veh53" depart="38.05" from="-368209083" to="-368096544#3" departLane="best" type="veh_passenger" departSpeed="max"/>
    <trip id="veh54" depart="38.76" from="337132072#0" to="226946947" departLane="best" type="veh_passenger"/>
    <trip id="veh55" depart="39.48" from="-587793740" to="-615037318" departLane="best" type="veh_passenger" departSpeed="max"/>
    <trip id="veh56" depart="40.20" from="1307885878" to="620768866#1" departLane="best" type="veh_passenger"/>
    <trip id="veh57" depart="40.92" from="-227019974#1" to="620768869#1" departLane="best" type="veh_passenger" departSpeed="max"/>
    <trip id="veh58" depart="41.64" from="620862578#1" to="367700883#1" departLane="best" type="veh_passenger"/>
    <trip id="veh59" depart="42.35" from="555600351#0" to="-620874944" departLane="best" type="veh_passenger" departSpeed="max"/>
    <trip id="veh60" depart="43.07" from="621949168#4" to="368104091#3" departLane="best" type="veh_passenger"/>
    <trip id="veh61" depart="43.79" from="367194255#3" to="1049377329" departLane="best" type="veh_passenger"/>
    <trip id="veh62" depart="44.51" from="-368096545#4" to="367700934#1" departLane="best" type="veh_passenger"/>
    <trip id="veh63" depart="45.23" from="368104071#3" to="-1012133729" departLane="best" type="veh_passenger"/>
    <trip id="veh64" depart="45.94" from="-586664246#1" to="226946949" departLane="best" type="veh_passenger"/>
    <trip id="veh65" depart="46.66" from="-368096544#1" to="-337132072#2" departLane="best" type="veh_passenger"/>
    <trip id="veh66" depart="47.38" from="-367700934#0" to="-109505207#2" departLane="best" type="veh_passenger"/>
    <trip id="veh67" depart="48.10" from="-33768805#3" to="-628456652#0" departLane="best" type="veh_passenger"/>
    <trip id="veh68" depart="48.81" from="-586659718" to="-337132072#10" departLane="best" type="veh_passenger"/>
    <trip id="veh69" depart="49.53" from="620772305#0" to="34990514#4" departLane="best" type="veh_passenger"/>
    <trip id="veh70" depart="50.25" from="364177895#1" to="367700883#3" departLane="best" type="veh_passenger"/>
    <trip id="veh71" depart="50.97" from="-587793740" to="337540073" departLane="best" type="veh_passenger" departSpeed="max"/>
    <trip id="veh72" depart="51.69" from="-587793740" to="350146691" departLane="best" type="veh_passenger" departSpeed="max"/>
    <trip id="veh73" depart="52.40" from="586595416" to="-109505207#3" departLane="best" type="veh_passenger" departSpeed="max"/>
    <trip id="veh74" depart="53.12" from="555600348#0" to="-336988370#1" departLane="best" type="veh_passenger"/>
    <trip id="veh75" depart="53.84" from="-103759573" to="-227100505#1" departLane="best" type="veh_passenger" departSpeed="max"/>
    <trip id="veh76" depart="54.56" from="1012133719" to="620862579" departLane="best" type="veh_passenger" departSpeed="max"/>
    <trip id="veh77" depart="55.28" from="615037303" to="586657908#2" departLane="best" type="veh_passenger" departSpeed="max"/>
    <trip id="veh78" depart="55.99" from="-34990514#2" to="-368204852" departLane="best" type="veh_passenger"/>
    <trip id="veh79" depart="56.71" from="-795671604#5" to="555600348#2" departLane="best" type="veh_passenger"/>
    <trip id="veh80" depart="57.43" from="350146688#5" to="-34990515#1" departLane="best" type="veh_passenger"/>
    <trip id="veh81" depart="58.15" from="-367700883#0" to="1049377329" departLane="best" type="veh_passenger"/>
    <trip id="veh82" depart="58.86" from="462987550" to="367700883#3" departLane="best" type="veh_passenger"/>
    <trip id="veh83" depart="59.58" from="587800918#4" to="117467837" departLane="best" type="veh_passenger"/>
    <trip id="veh84" depart="60.30" from="-620865939" to="109505207#3" departLane="best" type="veh_passenger" departSpeed="max"/>
    <trip id="veh85" depart="61.02" from="555600351#0" to="-444811599#2" departLane="best" type="veh_passenger" departSpeed="max"/>
    <trip id="veh86" depart="61.74" from="-367707574#0" to="586659413" departLane="best" type="veh_passenger"/>
    <trip id="veh87" depart="62.45" from="116690596#0" to="34990516#1" departLane="best" type="veh_passenger" departSpeed="max"/>
    <trip id="veh88" depart="63.17" from="-367194255#1" to="-116690593#0" departLane="best" type="veh_passenger"/>
    <trip id="veh89" depart="63.89" from="-109505208#2" to="-444811599#0" departLane="best" type="veh_passenger"/>
    <trip id="veh90" depart="64.61" from="620862579" to="103765643#1" departLane="best" type="veh_passenger"/>
    <trip id="veh91" depart="65.33" from="-1012133718#3" to="555601438#0" departLane="best" type="veh_passenger"/>
    <trip id="veh92" depart="66.04" from="-586659413" to="-34990515#2" departLane="best" type="veh_passenger" departSpeed="max"/>
    <trip id="veh93" depart="66.76" from="341096510#0" to="362871972#2" departLane="best" type="veh_passenger" departSpeed="max"/>
    <trip id="veh94" depart="67.48" from="-615037320#1" to="368027034" departLane="best" type="veh_passenger"/>
    <trip id="veh95" depart="68.20" from="587800918#2" to="-620768869#1" departLane="best" type="veh_passenger"/>
    <trip id="veh96" depart="68.91" from="1307885878" to="-1012133729" departLane="best" type="veh_passenger"/>
    <trip id="veh97" depart="69.63" from="350146685#0" to="368286982" departLane="best" type="veh_passenger"/>
    <trip id="veh98" depart="70.35" from="-620768866#1" to="362871972#3" departLane="best" type="veh_passenger" departSpeed="max"/>
    <trip id="veh99" depart="71.07" from="620862578#5" to="-34990514#0" departLane="best" type="veh_passenger"/>
    <trip id="veh100" depart="71.79" from="555600351#0" to="1122773432#1" departLane="best" type="veh_passenger" departSpeed="max"/>
    <trip id="veh101" depart="72.50" from="620862579" to="-227100505#0" departLane="best" type="veh_passenger"/>
    <trip id="veh102" depart="73.22" from="-621949168#1" to="-33973140#2" departLane="best" type="veh_passenger"/>
    <trip id="veh103" depart="73.94" from="-444811599#1" to="615037324" departLane="best" type="veh_passenger"/>
    <trip id="veh104" depart="74.66" from="227019974#0" to="-620849594" departLane="best" type="veh_passenger"/>
    <trip id="veh105" depart="75.38" from="621949168#4" to="-1304287973" departLane="best" type="veh_passenger"/>
    <trip id="veh106" depart="76.09" from="292749336#6" to="586657908#4" departLane="best" type="veh_passenger"/>
    <trip id="veh107" depart="76.81" from="1307885878" to="620863350" departLane="best" type="veh_passenger"/>
    <trip id="veh108" depart="77.53" from="615037303" to="226946949" departLane="best" type="veh_passenger" departSpeed="max"/>
    <trip id="veh109" depart="78.25" from="-103759573" to="368096547#1" departLane="best" type="veh_passenger" departSpeed="max"/>
    <trip id="veh110" depart="78.97" from="341096510#0" to="-335575150" departLane="best" type="veh_passenger" departSpeed="max"/>
    <trip id="veh111" depart="79.68" from="555600348#2" to="444826908#2" departLane="best" type="veh_passenger"/>
    <trip id="veh112" depart="80.40" from="33973140#2" to="337132072#3" departLane="best" type="veh_passenger"/>
    <trip id="veh113" depart="81.12" from="103765643#2" to="367700934#2" departLane="best" type="veh_passenger"/>
    <trip id="veh114" depart="81.84" from="-628456652#1" to="620775234#2" departLane="best" type="veh_passenger" departSpeed="max"/>
    <trip id="veh115" depart="82.55" from="337132049" to="364177895#2" departLane="best" type="veh_passenger" departSpeed="max"/>
    <trip id="veh116" depart="83.27" from="227100505#1" to="-335575150" departLane="best" type="veh_passenger"/>
    <trip id="veh117" depart="83.99" from="212414966" to="620772305#1" departLane="best" type="veh_passenger"/>
    <trip id="veh118" depart="84.71" from="-368027038" to="-368104091#2" departLane="best" type="veh_passenger"/>
    <trip id="veh119" depart="85.43" from="-459934830#0" to="-368096544#3" departLane="best" type="veh_passenger"/>
    <trip id="veh120" depart="86.14" from="586595416" to="226946949" departLane="best" type="veh_passenger" departSpeed="max"/>
    <trip id="veh121" depart="86.86" from="-227100505#1" to="1324287528#0" departLane="best" type="veh_passenger"/>
    <trip id="veh122" depart="87.58" from="367707574#1" to="-116690479#0" departLane="best" type="veh_passenger"/>
    <trip id="veh123" depart="88.30" from="-367762382#0" to="-109505207#1" departLane="best" type="veh_passenger"/>
    <trip id="veh124" depart="89.02" from="367707574#1" to="-795671604#3" departLane="best" type="veh_passenger"/>
    <trip id="veh125" depart="89.73" from="-103759573" to="-368104071#2" departLane="best" type="veh_passenger" departSpeed="max"/>
    <trip id="veh126" depart="90.45" from="-367707574#0" to="327075459#0" departLane="best" type="veh_passenger"/>
    <trip id="veh127" depart="91.17" from="-615037320#2" to="34990514#4" departLane="best" type="veh_passenger"/>
    <trip id="veh128" depart="91.89" from="227131720#0" to="337540069#0" departLane="best" type="veh_passenger" departSpeed="max"/>
    <trip id="veh129" depart="92.60" from="-34990516#1" to="-116690593#0" departLane="best" type="veh_passenger"/>
    <trip id="veh130" depart="93.32" from="380090117#0" to="368096544#0" departLane="best" type="veh_passenger"/>
    <trip id="veh131" depart="94.04" from="350146688#3" to="628456652#1" departLane="best" type="veh_passenger"/>
    <trip id="veh132" depart="94.76" from="-586659717" to="368104071#0" departLane="best" type="veh_passenger"/>
    <trip id="veh133" depart="95.48" from="-555600865" to="33768805#1" departLane="best" type="veh_passenger"/>
    <trip id="veh134" depart="96.19" from="337540075" to="890146631" departLane="best" type="veh_passenger" departSpeed="max"/>
    <trip id="veh135" depart="96.91" from="1305093055#0" to="-368096546#0" departLane="best" type="veh_passenger"/>
    <trip id="veh136" depart="97.63" from="620874944" to="364177895#2" departLane="best" type="veh_passenger" departSpeed="max"/>
    <trip id="veh137" depart="98.35" from="-615037320#2" to="-444811599#0" departLane="best" type="veh_passenger"/>
    <trip id="veh138" depart="99.07" from="-109505204#0" to="-227131720#2" departLane="best" type="veh_passenger"/>
    <trip id="veh139" depart="99.78" from="795671604#8" to="292749336#3" departLane="best" type="veh_passenger"/>
    <trip id="veh140" depart="100.50" from="444826908#0" to="-368096546#1" departLane="best" type="veh_passenger"/>
    <trip id="veh141" depart="101.22" from="586657908#1" to="368027023#1" departLane="best" type="veh_passenger"/>
    <trip id="veh142" depart="101.94" from="587800918#1" to="116690479#0" departLane="best" type="veh_passenger"/>
    <trip id="veh143" depart="102.65" from="-586659413" to="620775234#2" departLane="best" type="veh_passenger" departSpeed="max"/>
    <trip id="veh144" depart="103.37" from="292749336#2" to="-795671604#3" departLane="best" type="veh_passenger"/>
    <trip id="veh145" depart="104.09" from="1408953126#0" to="-620869256" departLane="best" type="veh_passenger" departSpeed="max"/>
    <trip id="veh146" depart="104.81" from="-227019974#1" to="-116690593#1" departLane="best" type="veh_passenger" departSpeed="max"/>
    <trip id="veh147" depart="105.53" from="-227100505#1" to="620768866#0" departLane="best" type="veh_passenger"/>
    <trip id="veh148" depart="106.24" from="-620771557" to="-109505208#3" departLane="best" type="veh_passenger"/>
    <trip id="veh149" depart="106.96" from="-795671604#2" to="34990514#4" departLane="best" type="veh_passenger"/>
    <trip id="veh150" depart="107.68" from="33973140#4" to="620768869#3" departLane="best" type="veh_passenger"/>
    <trip id="veh151" depart="108.40" from="-620772305#1" to="621949168#2" departLane="best" type="veh_passenger"/>
    <trip id="veh152" depart="109.12" from="-1012133729" to="-33836788#2" departLane="best" type="veh_passenger"/>
    <trip id="veh153" depart="109.83" from="1305093055#0" to="350146688#0" departLane="best" type="veh_passenger"/>
    <trip id="veh154" depart="110.55" from="-977815033#0" to="444826919#2" departLane="best" type="veh_passenger"/>
    <trip id="veh155" depart="111.27" from="292749336#0" to="-1012133718#0" departLane="best" type="veh_passenger"/>
    <trip id="veh156" depart="111.99" from="-380090117#1" to="-350146691" departLane="best" type="veh_passenger"/>
    <trip id="veh157" depart="112.70" from="34990514#0" to="109505208#0" departLane="best" type="veh_passenger"/>
    <trip id="veh158" depart="113.42" from="890146631" to="620994315#0" departLane="best" type="veh_passenger"/>
    <trip id="veh159" depart="114.14" from="-586659717" to="-116690480#0" departLane="best" type="veh_passenger"/>
    <trip id="veh160" depart="114.86" from="-367194255#4" to="103759573" departLane="best" type="veh_passenger"/>
    <trip id="veh161" depart="115.58" from="1012133718#3" to="103759573" departLane="best" type="veh_passenger"/>
    <trip id="veh162" depart="116.29" from="-227100507#0" to="-555600351#0" departLane="best" type="veh_passenger"/>
    <trip id="veh163" depart="117.01" from="-850677551#1" to="368209083" departLane="best" type="veh_passenger"/>
    <trip id="veh164" depart="117.73" from="-33768751" to="34990514#4" departLane="best" type="veh_passenger"/>
    <trip id="veh165" depart="118.45" from="-620865939" to="444826908#1" departLane="best" type="veh_passenger" departSpeed="max"/>
    <trip id="veh166" depart="119.17" from="364177895#1" to="-367194255#2" departLane="best" type="veh_passenger"/>
    <trip id="veh167" depart="119.88" from="368027023#0" to="-620862578#5" departLane="best" type="veh_passenger"/>
    <trip id="veh168" depart="120.60" from="-586664246#2" to="1408953124#2" departLane="best" type="veh_passenger"/>
    <trip id="veh169" depart="121.32" from="-555601438#2" to="-621949168#5" departLane="best" type="veh_passenger" departSpeed="max"/>
    <trip id="veh170" depart="122.04" from="331675474" to="-368096546#0" departLane="best" type="veh_passenger" departSpeed="max"/>
    <trip id="veh171" depart="122.75" from="586664246#4" to="-444826919#0" departLane="best" type="veh_passenger"/>
    <trip id="veh172" depart="123.47" from="367700883#1" to="628456652#1" departLane="best" type="veh_passenger"/>
    <trip id="veh173" depart="124.19" from="-337132072#0" to="615037319#1" departLane="best" type="veh_passenger"/>
    <trip id="veh174" depart="124.91" from="-367194255#2" to="109505204#1" departLane="best" type="veh_passenger"/>
    <trip id="veh175" depart="125.63" from="795671604#1" to="-337540075" departLane="best" type="veh_passenger"/>
    <trip id="veh176" depart="126.34" from="-227019974#1" to="367700934#3" departLane="best" type="veh_passenger" departSpeed="max"/>
    <trip id="veh177" depart="127.06" from="-116690596#0" to="-337132072#0" departLane="best" type="veh_passenger"/>
    <trip id="veh178" depart="127.78" from="-368286982" to="-109505204#0" departLane="best" type="veh_passenger" departSpeed="max"/>
    <trip id="veh179" depart="128.50" from="-620768869#0" to="-1305093056" departLane="best" type="veh_passenger"/>
    <trip id="veh180" depart="129.22" from="620849594" to="1312476762" departLane="best" type="veh_passenger" departSpeed="max"/>
    <trip id="veh181" depart="129.93" from="-109505208#1" to="368190051" departLane="best" type="veh_passenger"/>
    <trip id="veh182" depart="130.65" from="-368104091#3" to="615037322" departLane="best" type="veh_passenger"/>
    <trip id="veh183" depart="131.37" from="-109505208#4" to="-337132049" departLane="best" type="veh_passenger"/>
    <trip id="veh184" depart="132.09" from="-620862578#6" to="586657908#1" departLane="best" type="veh_passenger" departSpeed="max"/>
    <trip id="veh185" depart="132.80" from="620849594" to="644261214" departLane="best" type="veh_passenger" departSpeed="max"/>
    <trip id="veh186" depart="133.52" from="-368027034" to="-620869256" departLane="best" type="veh_passenger"/>
    <trip id="veh187" depart="134.24" from="586661204" to="586657042#0" departLane="best" type="veh_passenger"/>
    <trip id="veh188" depart="134.96" from="620862578#3" to="-227131720#0" departLane="best" type="veh_passenger"/>
    <trip id="veh189" depart="135.68" from="-116690479#1" to="-795671604#5" departLane="best" type="veh_passenger"/>
    <trip id="veh190" depart="136.39" from="586657908#2" to="367700883#3" departLane="best" type="veh_passenger"/>
    <trip id="veh191" depart="137.11" from="-888879166" to="367700883#1" departLane="best" type="veh_passenger"/>
    <trip id="veh192" depart="137.83" from="109505208#0" to="586658921" departLane="best" type="veh_passenger"/>
    <trip id="veh193" depart="138.55" from="-555600865" to="368209083" departLane="best" type="veh_passenger"/>
    <trip id="veh194" depart="139.27" from="-34990514#4" to="337540069#1" departLane="best" type="veh_passenger" departSpeed="max"/>
    <trip id="veh195" depart="139.98" from="-586664246#2" to="-620768866#0" departLane="best" type="veh_passenger"/>
    <trip id="veh196" depart="140.70" from="-444811602" to="-116690480#0" departLane="best" type="veh_passenger" departSpeed="max"/>
    <trip id="veh197" depart="141.42" from="-327075459#1" to="364177895#1" departLane="best" type="veh_passenger"/>
    <trip id="veh198" depart="142.14" from="103765643#1" to="337540069#1" departLane="best" type="veh_passenger"/>
    <trip id="veh199" depart="142.85" from="462987553" to="861783801" departLane="best" type="veh_passenger"/>
    <trip id="veh200" depart="143.57" from="-628456652#1" to="368190050#1" departLane="best" type="veh_passenger" departSpeed="max"/>
    <trip id="veh201" depart="144.29" from="586595416" to="586664246#0" departLane="best" type="veh_passenger" departSpeed="max"/>
    <trip id="veh202" depart="145.01" from="362871972#1" to="-368096544#1" departLane="best" type="veh_passenger"/>
    <trip id="veh203" depart="145.73" from="586595416" to="292749336#4" departLane="best" type="veh_passenger" departSpeed="max"/>
    <trip id="veh204" depart="146.44" from="368104091#2" to="368104091#5" departLane="best" type="veh_passenger"/>
    <trip id="veh205" depart="147.16" from="-103759573" to="-116690596#0" departLane="best" type="veh_passenger" departSpeed="max"/>
    <trip id="veh206" depart="147.88" from="1012133718#2" to="350146691" departLane="best" type="veh_passenger"/>
    <trip id="veh207" depart="148.60" from="-33768805#5" to="367707574#1" departLane="best" type="veh_passenger"/>
    <trip id="veh208" depart="149.32" from="-620768869#1" to="350146688#1" departLane="best" type="veh_passenger"/>
    <trip id="veh209" depart="150.03" from="-444826919#0" to="-368096545#1" departLane="best" type="veh_passenger"/>
    <trip id="veh210" depart="150.75" from="-34990514#1" to="367700883#3" departLane="best" type="veh_passenger"/>
    <trip id="veh211" depart="151.47" from="-337540069#1" to="586659413" departLane="best" type="veh_passenger"/>
    <trip id="veh212" depart="152.19" from="-444811599#2" to="620862578#0" departLane="best" type="veh_passenger"/>
    <trip id="veh213" depart="152.91" from="795671604#6" to="555601518" departLane="best" type="veh_passenger"/>
    <trip id="veh214" depart="153.62" from="586657042#0" to="-977815033#1" departLane="best" type="veh_passenger"/>
    <trip id="veh215" depart="154.34" from="-109505208#2" to="-331675474" departLane="best" type="veh_passenger"/>
    <trip id="veh216" depart="155.06" from="-555600348#2" to="-368104071#2" departLane="best" type="veh_passenger"/>
    <trip id="veh217" depart="155.78" from="-1117713207#1" to="368096544#3" departLane="best" type="veh_passenger"/>
    <trip id="veh218" depart="156.49" from="-1324287528#1" to="-459934830#0" departLane="best" type="veh_passenger"/>
    <trip id="veh219" depart="157.21" from="367707574#2" to="368204852" departLane="best" type="veh_passenger"/>
    <trip id="veh220" depart="157.93" from="462987551" to="-368096545#3" departLane="best" type="veh_passenger"/>
    <trip id="veh221" depart="158.65" from="-359450383#0" to="341456563" departLane="best" type="veh_passenger"/>
    <trip id="veh222" depart="159.37" from="555600865" to="368104091#0" departLane="best" type="veh_passenger"/>
    <trip id="veh223" depart="160.08" from="368104091#1" to="-977815031" departLane="best" type="veh_passenger"/>
    <trip id="veh224" depart="160.80" from="368096544#2" to="620768866#1" departLane="best" type="veh_passenger"/>
    <trip id="veh225" depart="161.52" from="586657041" to="-116690480#0" departLane="best" type="veh_passenger" departSpeed="max"/>
    <trip id="veh226" depart="162.24" from="-1012133729" to="-555600351#0" departLane="best" type="veh_passenger"/>
    <trip id="veh227" depart="162.96" from="-620862579" to="795671604#1" departLane="best" type="veh_passenger"/>
    <trip id="veh228" depart="163.67" from="368104071#3" to="103759573" departLane="best" type="veh_passenger"/>
    <trip id="veh229" depart="164.39" from="329817169" to="-977815033#0" departLane="best" type="veh_passenger" departSpeed="max"/>
    <trip id="veh230" depart="165.11" from="615037320#2" to="341456563" departLane="best" type="veh_passenger"/>
    <trip id="veh231" depart="165.83" from="621949168#2" to="-1324287528#0" departLane="best" type="veh_passenger"/>
    <trip id="veh232" depart="166.54" from="587800918#2" to="109505204#0" departLane="best" type="veh_passenger"/>
    <trip id="veh233" depart="167.26" from="1304287974" to="615037321" departLane="best" type="veh_passenger"/>
    <trip id="veh234" depart="167.98" from="1012133718#2" to="103759573" departLane="best" type="veh_passenger"/>
    <trip id="veh235" depart="168.70" from="-368104091#3" to="367700883#1" departLane="best" type="veh_passenger"/>
    <trip id="veh236" depart="169.42" from="368096544#2" to="364177895#1" departLane="best" type="veh_passenger"/>
    <trip id="veh237" depart="170.13" from="1305093055#0" to="-335575150" departLane="best" type="veh_passenger"/>
    <trip id="veh238" depart="170.85" from="-368027038" to="-337132054" departLane="best" type="veh_passenger"/>
    <trip id="veh239" depart="171.57" from="-341456566" to="1324287528#3" departLane="best" type="veh_passenger" departSpeed="max"/>
    <trip id="veh240" depart="172.29" from="376346459" to="367762378" departLane="best" type="veh_passenger" departSpeed="max"/>
    <trip id="veh241" depart="173.01" from="795671604#1" to="898487482" departLane="best" type="veh_passenger"/>
    <trip id="veh242" depart="173.72" from="33768805#3" to="587800915#0" departLane="best" type="veh_passenger"/>