<?xml version="1.0" encoding="UTF-8"?>

<!-- generated on 2025-11-04 14:17:03.945718 by osmWebWizard.py UNKNOWN
<configuration>
    <net-file value="/home/sour/Sumo/2025-11-04-13-16-48/2025-11-04-14-16-43/osm.net.xml.gz"/>
    <output-trip-file value="/home/sour/Sumo/2025-11-04-13-16-48/2025-11-04-14-16-43/osm.motorcycle.trips.xml"/>
    <route-file value="/home/sour/Sumo/2025-11-04-13-16-48/2025-11-04-14-16-43/osm.motorcycle.rou.xml"/>
    <prefix value="motorcycle"/>
    <trip-attributes value="departLane=&quot;best&quot;"/>
    <fringe-start-attributes value="departSpeed=&quot;max&quot;"/>
    <vehicle-class value="motorcycle"/>
    <fringe-factor value="50"/>
    <edge-permission value="motorcycle"/>
    <via-edge-types value="highway.motorway,highway.motorway_link,highway.trunk_link,highway.primary_link,highway.secondary_link,highway.tertiary_link"/>
    <seed value="43"/>
    <max-distance value="1200.0"/>
    <remove-loops value="True"/>
    <insertion-density value="4.0"/>
</configuration>
-->

<routes xmlns:xsi="http://www.w3.org/2001/XMLSchema-instance" xsi:noNamespaceSchemaLocation="http://sumo.dlr.de/xsd/routes_file.xsd">
    <vType id="motorcycle_motorcycle" vClass="motorcycle"/>
    <trip id="motorcycle0" depart="0.00" from="-1369976043" to="338769951#1" departLane="best" type="motorcycle_motorcycle" departSpeed="max"/>
    <trip id="motorcycle1" depart="6.48" from="-340934815#1" to="-631863278#0" departLane="best" type="motorcycle_motorcycle" departSpeed="max"/>
    <trip id="motorcycle2" depart="12.96" from="586319513" to="556909867#1" departLane="best" type="motorcycle_motorcycle" departSpeed="max"/>
    <trip id="motorcycle3" depart="19.44" from="-259202692" to="579777169" departLane="best" type="motorcycle_motorcycle" departSpeed="max"/>
    <trip id="motorcycle4" depart="25.92" from="282840329" to="620204986#1" departLane="best" type="motorcycle_motorcycle" departSpeed="max"/>
    <trip id="motorcycle5" depart="32.41" from="555604170" to="-227131720#0" departLane="best" type="motorcycle_motorcycle" departSpeed="max"/>
    <trip id="motorcycle6" depart="38.89" from="282840329" to="-579925088" departLane="best" type="motorcycle_motorcycle" departSpeed="max"/>
    <trip id="motorcycle7" depart="45.37" from="631906580" to="1121692938#2" departLane="best" type="motorcycle_motorcycle" departSpeed="max"/>
    <trip id="motorcycle8" depart="51.85" from="-260062647#2" to="1009076941" departLane="best" type="motorcycle_motorcycle"/>
    <trip id="motorcycle9" depart="58.33" from="631906580" to="230244698#3" departLane="best" type="motorcycle_motorcycle" departSpeed="max"/>
    <trip id="motorcycle10" depart="64.81" from="-258226028#1" to="-260062647#0" departLane="best" type="motorcycle_motorcycle"/>
    <trip id="motorcycle11" depart="71.29" from="-258226055#0" to="292764136" departLane="best" type="motorcycle_motorcycle"/>
    <trip id="motorcycle12" depart="77.77" from="170688960#0" to="-170688960#0" departLane="best" type="motorcycle_motorcycle" departSpeed="max"/>
    <trip id="motorcycle13" depart="84.26" from="-1009076942" to="586659413" departLane="best" type="motorcycle_motorcycle" departSpeed="max"/>
    <trip id="motorcycle14" depart="90.74" from="586574698#0" to="586373441" departLane="best" type="motorcycle_motorcycle"/>
    <trip id="motorcycle15" depart="97.22" from="444477330" to="568973576" departLane="best" type="motorcycle_motorcycle" departSpeed="max"/>
    <trip id="motorcycle16" depart="103.70" from="586319513" to="-586323859" departLane="best" type="motorcycle_motorcycle" departSpeed="max"/>
    <trip id="motorcycle17" depart="110.18" from="444477814#0" to="-253581894#2" departLane="best" type="motorcycle_motorcycle" departSpeed="max"/>
    <trip id="motorcycle18" depart="116.66" from="109565742" to="337540068#2" departLane="best" type="motorcycle_motorcycle" departSpeed="max"/>
    <trip id="motorcycle19" depart="123.14" from="260062647#0" to="-444477816#0" departLane="best" type="motorcycle_motorcycle" departSpeed="max"/>
    <trip id="motorcycle20" depart="129.62" from="282840329" to="614635711" departLane="best" type="motorcycle_motorcycle" departSpeed="max"/>
    <trip id="motorcycle21" depart="136.11" from="579914857#0" to="340934815#1" departLane="best" type="motorcycle_motorcycle" departSpeed="max"/>
    <trip id="motorcycle22" depart="142.59" from="631906580" to="292764136" departLane="best" type="motorcycle_motorcycle" departSpeed="max"/>
    <trip id="motorcycle23" depart="149.07" from="631863278#0" to="-444475977" departLane="best" type="motorcycle_motorcycle" departSpeed="max"/>
    <trip id="motorcycle24" depart="155.55" from="-368104071#4" to="-368104091#0" departLane="best" type="motorcycle_motorcycle" departSpeed="max"/>
    <trip id="motorcycle25" depart="162.03" from="-204122962" to="-1194712200" departLane="best" type="motorcycle_motorcycle" departSpeed="max"/>
    <trip id="motorcycle26" depart="168.51" from="258226050#0" to="258136093#0" departLane="best" type="motorcycle_motorcycle" departSpeed="max"/>
    <trip id="motorcycle27" depart="174.99" from="230283481#0" to="615037259#0" departLane="best" type="motorcycle_motorcycle"/>
    <trip id="motorcycle28" depart="181.47" from="260062647#0" to="-444805124#1" departLane="best" type="motorcycle_motorcycle" departSpeed="max"/>
    <trip id="motorcycle29" depart="187.96" from="-568955931#2" to="-260062647#0" departLane="best" type="motorcycle_motorcycle" departSpeed="max"/>
    <trip id="motorcycle30" depart="194.44" from="260062647#0" to="337540073" departLane="best" type="motorcycle_motorcycle" departSpeed="max"/>
    <trip id="motorcycle31" depart="200.92" from="-568973576" to="340934815#1" departLane="best" type="motorcycle_motorcycle" departSpeed="max"/>
    <trip id="motorcycle32" depart="207.40" from="-230244699#2" to="340934815#1" departLane="best" type="motorcycle_motorcycle"/>
    <trip id="motorcycle33" depart="213.88" from="444798085#0" to="-631906579#0" departLane="best" type="motorcycle_motorcycle"/>
    <trip id="motorcycle34" depart="220.36" from="340934820#2" to="-444806104#0" departLane="best" type="motorcycle_motorcycle"/>
    <trip id="motorcycle35" depart="226.84" from="230218149#0" to="-586657906#0" departLane="best" type="motorcycle_motorcycle" departSpeed="max"/>
    <trip id="motorcycle36" depart="233.32" from="586575935" to="368096547#3" departLane="best" type="motorcycle_motorcycle" departSpeed="max"/>
    <trip id="motorcycle37" depart="239.81" from="258226050#0" to="568973576" departLane="best" type="motorcycle_motorcycle" departSpeed="max"/>
    <trip id="motorcycle38" depart="246.29" from="33195669" to="359450387#0" departLane="best" type="motorcycle_motorcycle" departSpeed="max"/>
    <trip id="motorcycle39" depart="252.77" from="340934814#0" to="555601438#2" departLane="best" type="motorcycle_motorcycle"/>
    <trip id="motorcycle40" depart="259.25" from="33195669" to="-116690480#0" departLane="best" type="motorcycle_motorcycle" departSpeed="max"/>
    <trip id="motorcycle41" depart="265.73" from="444475977" to="586659413" departLane="best" type="motorcycle_motorcycle" departSpeed="max"/>
    <trip id="motorcycle42" depart="272.21" from="586569891" to="-444477330" departLane="best" type="motorcycle_motorcycle" departSpeed="max"/>
    <trip id="motorcycle43" depart="278.69" from="227131720#0" to="-555600351#0" departLane="best" type="motorcycle_motorcycle" departSpeed="max"/>
    <trip id="motorcycle44" depart="285.17" from="-628456652#1" to="-586657906#0" departLane="best" type="motorcycle_motorcycle" departSpeed="max"/>
    <trip id="motorcycle45" depart="291.65" from="-568973576" to="-282840328" departLane="best" type="motorcycle_motorcycle" departSpeed="max"/>
    <trip id="motorcycle46" depart="298.14" from="568955932" to="-579914861" departLane="best" type="motorcycle_motorcycle" departSpeed="max"/>
    <trip id="motorcycle47" depart="304.62" from="444475977" to="-586661204" departLane="best" type="motorcycle_motorcycle" departSpeed="max"/>
    <trip id="motorcycle48" depart="311.10" from="-555601438#2" to="-631863278#0" departLane="best" type="motorcycle_motorcycle" departSpeed="max"/>
    <trip id="motorcycle49" depart="317.58" from="-368096547#3" to="628456652#1" departLane="best" type="motorcycle_motorcycle" departSpeed="max"/>
    <trip id="motorcycle50" depart="324.06" from="230244705#0" to="615037254" departLane="best" type="motorcycle_motorcycle"/>
    <trip id="motorcycle51" depart="330.54" from="586557575#3" to="568973576" departLane="best" type="motorcycle_motorcycle"/>
    <trip id="motorcycle52" depart="337.02" from="444806104#0" to="-444477816#0" departLane="best" type="motorcycle_motorcycle" departSpeed="max"/>
    <trip id="motorcycle53" depart="343.50" from="109505207#3" to="-586319513" departLane="best" type="motorcycle_motorcycle"/>
    <trip id="motorcycle54" depart="349.99" from="-259202692" to="33197215#2" departLane="best" type="motorcycle_motorcycle" departSpeed="max"/>
    <trip id="motorcycle55" depart="356.47" from="230218149#0" to="555601438#2" departLane="best" type="motorcycle_motorcycle" departSpeed="max"/>
    <trip id="motorcycle56" depart="362.95" from="-444477816#1" to="340934815#1" departLane="best" type="motorcycle_motorcycle" departSpeed="max"/>
    <trip id="motorcycle57" depart="369.43" from="230218149#0" to="629067608#0" departLane="best" type="motorcycle_motorcycle" departSpeed="max"/>
    <trip id="motorcycle58" depart="375.91" from="-674860564" to="-230244707" departLane="best" type="motorcycle_motorcycle" departSpeed="max"/>
    <trip id="motorcycle59" depart="382.39" from="586568472" to="568955931#2" departLane="best" type="motorcycle_motorcycle" departSpeed="max"/>
    <trip id="motorcycle60" depart="388.87" from="-444477816#1" to="579777169" departLane="best" type="motorcycle_motorcycle" departSpeed="max"/>
    <trip id="motorcycle61" depart="395.35" from="1117713203#2" to="-230218149#0" departLane="best" type="motorcycle_motorcycle"/>
    <trip id="motorcycle62" depart="401.84" from="586569891" to="620204986#1" departLane="best" type="motorcycle_motorcycle" departSpeed="max"/>
    <trip id="motorcycle63" depart="408.32" from="33195669" to="-444477814#0" departLane="best" type="motorcycle_motorcycle" departSpeed="max"/>
    <trip id="motorcycle64" depart="414.80" from="-230218185" to="586314122#2" departLane="best" type="motorcycle_motorcycle"/>
    <trip id="motorcycle65" depart="421.28" from="362714495#0" to="-444475977" departLane="best" type="motorcycle_motorcycle"/>
    <trip id="motorcycle66" depart="427.76" from="227131720#0" to="204122962" departLane="best" type="motorcycle_motorcycle" departSpeed="max"/>
    <trip id="motorcycle67" depart="434.24" from="260062647#0" to="388949442#2" departLane="best" type="motorcycle_motorcycle" departSpeed="max"/>
    <trip id="motorcycle68" depart="440.72" from="444475977" to="1009076942" departLane="best" type="motorcycle_motorcycle" departSpeed="max"/>
    <trip id="motorcycle69" depart="447.20" from="515235348#2" to="-1118659371" departLane="best" type="motorcycle_motorcycle"/>
    <trip id="motorcycle70" depart="453.69" from="-586659413" to="-258226050#0" departLane="best" type="motorcycle_motorcycle" departSpeed="max"/>
    <trip id="motorcycle71" depart="460.17" from="-282840323#1" to="-586575935" departLane="best" type="motorcycle_motorcycle"/>
    <trip id="motorcycle72" depart="466.65" from="368096545#0" to="-367762382#0" departLane="best" type="motorcycle_motorcycle" departSpeed="max"/>
    <trip id="motorcycle73" depart="473.13" from="362714494#0" to="116690479#1" departLane="best" type="motorcycle_motorcycle"/>
    <trip id="motorcycle74" depart="479.61" from="586657906#0" to="555601438#2" departLane="best" type="motorcycle_motorcycle" departSpeed="max"/>
    <trip id="motorcycle75" depart="486.09" from="586568472" to="-568955932" departLane="best" type="motorcycle_motorcycle" departSpeed="max"/>
    <trip id="motorcycle76" depart="492.57" from="-258245655#10" to="253581894#2" departLane="best" type="motorcycle_motorcycle" departSpeed="max"/>
    <trip id="motorcycle77" depart="499.05" from="-204122962" to="-586575935" departLane="best" type="motorcycle_motorcycle" departSpeed="max"/>
    <trip id="motorcycle78" depart="505.54" from="-568955931#1" to="628456652#1" departLane="best" type="motorcycle_motorcycle"/>
    <trip id="motorcycle79" depart="512.02" from="-586326406#3" to="-579914861" departLane="best" type="motorcycle_motorcycle"/>
    <trip id="motorcycle80" depart="518.50" from="-568973576" to="-555604170" departLane="best" type="motorcycle_motorcycle" departSpeed="max"/>
    <trip id="motorcycle81" depart="524.98" from="-620204986#1" to="1369976043" departLane="best" type="motorcycle_motorcycle" departSpeed="max"/>
    <trip id="motorcycle82" depart="531.46" from="586569891" to="-586657906#0" departLane="best" type="motorcycle_motorcycle" departSpeed="max"/>
    <trip id="motorcycle83" depart="537.94" from="154091487" to="-337540075" departLane="best" type="motorcycle_motorcycle"/>
    <trip id="motorcycle84" depart="544.42" from="-258325416#1" to="-555604170" departLane="best" type="motorcycle_motorcycle"/>
    <trip id="motorcycle85" depart="550.90" from="-579914859" to="444806104#1" departLane="best" type="motorcycle_motorcycle" departSpeed="max"/>
    <trip id="motorcycle86" depart="557.39" from="230218149#0" to="-444477816#0" departLane="best" type="motorcycle_motorcycle" departSpeed="max"/>
    <trip id="motorcycle87" depart="563.87" from="579914861" to="444806104#1" departLane="best" type="motorcycle_motorcycle" departSpeed="max"/>
    <trip id="motorcycle88" depart="570.35" from="516511594#2" to="-337540064#0" departLane="best" type="motorcycle_motorcycle"/>
    <trip id="motorcycle89" depart="576.83" from="337540067" to="-568955932" departLane="best" type="motorcycle_motorcycle"/>
    <trip id="motorcycle90" depart="583.31" from="-568973576" to="258325392#2" departLane="best" type="motorcycle_motorcycle" departSpeed="max"/>
    <trip id="motorcycle91" depart="589.79" from="258325387#1" to="-555600351#0" departLane="best" type="motorcycle_motorcycle"/>
    <trip id="motorcycle92" depart="596.27" from="212414966" to="368096547#3" departLane="best" type="motorcycle_motorcycle" departSpeed="max"/>
    <trip id="motorcycle93" depart="602.75" from="-1121692938#2" to="444806104#1" departLane="best" type="motorcycle_motorcycle" departSpeed="max"/>
    <trip id="motorcycle94" depart="609.23" from="-1369976043" to="-336988370#1" departLane="best" type="motorcycle_motorcycle" departSpeed="max"/>
    <trip id="motorcycle95" depart="615.72" from="444477330" to="-260062647#0" departLane="best" type="motorcycle_motorcycle" departSpeed="max"/>
    <trip id="motorcycle96" depart="622.20" from="579914857#0" to="-579914861" departLane="best" type="motorcycle_motorcycle" departSpeed="max"/>
    <trip id="motorcycle97" depart="628.68" from="-579914859" to="-444805127#0" departLane="best" type="motorcycle_motorcycle" departSpeed="max"/>
    <trip id="motorcycle98" depart="635.16" from="579925088" to="340934814#0" departLane="best" type="motorcycle_motorcycle" departSpeed="max"/>
    <trip id="motorcycle99" depart="641.64" from="586569891" to="586657908#3" departLane="best" type="motorcycle_motorcycle" departSpeed="max"/>
    <trip id="motorcycle100" depart="648.12" from="-620204986#1" to="359450390" departLane="best" type="motorcycle_motorcycle" departSpeed="max"/>
    <trip id="motorcycle101" depart="654.60" from="-555601438#2" to="-586575935" departLane="best" type="motorcycle_motorcycle" departSpeed="max"/>
    <trip id="motorcycle102" depart="661.08" from="282840329" to="-586319513" departLane="best" type="motorcycle_motorcycle" departSpeed="max"/>
    <trip id="motorcycle103" depart="667.57" from="-586659413" to="-850677551#3" departLane="best" type="motorcycle_motorcycle" departSpeed="max"/>
    <trip id="motorcycle104" depart="674.05" from="-260062648" to="-631906579#0" departLane="best" type="motorcycle_motorcycle"/>
    <trip id="motorcycle105" depart="680.53" from="-616824387#1" to="-586319513" departLane="best" type="motorcycle_motorcycle"/>
    <trip id="motorcycle106" depart="687.01" from="260062647#0" to="615037250#2" departLane="best" type="motorcycle_motorcycle" departSpeed="max"/>
    <trip id="motorcycle107" depart="693.49" from="-204122958#1" to="-631906579#0" departLane="best" type="motorcycle_motorcycle"/>
    <trip id="motorcycle108" depart="699.97" from="579914861" to="-444477330" departLane="best" type="motorcycle_motorcycle" departSpeed="max"/>
    <trip id="motorcycle109" depart="706.45" from="-337540068#2" to="-230218149#0" departLane="best" type="motorcycle_motorcycle" departSpeed="max"/>
    <trip id="motorcycle110" depart="712.93" from="568955932" to="516511594#1" departLane="best" type="motorcycle_motorcycle" departSpeed="max"/>
    <trip id="motorcycle111" depart="719.42" from="-615037318#0" to="586659413" departLane="best" type="motorcycle_motorcycle"/>
    <trip id="motorcycle112" depart="725.90" from="444806103" to="258245655#10" departLane="best" type="motorcycle_motorcycle" departSpeed="max"/>
    <trip id="motorcycle113" depart="732.38" from="579925088" to="33197140#2" departLane="best" type="motorcycle_motorcycle" departSpeed="max"/>
    <trip id="motorcycle114" depart="738.86" from="586323859" to="-579914861" departLane="best" type="motorcycle_motorcycle" departSpeed="max"/>
    <trip id="motorcycle115" depart="745.34" from="33195669" to="-227131720#0" departLane="best" type="motorcycle_motorcycle" departSpeed="max"/>
    <trip id="motorcycle116" depart="751.82" from="-258245655#10" to="-444806104#0" departLane="best" type="motorcycle_motorcycle" departSpeed="max"/>
    <trip id="motorcycle117" depart="758.30" from="-555601438#2" to="-116690480#0" departLane="best" type="motorcycle_motorcycle" departSpeed="max"/>
    <trip id="motorcycle118" depart="764.78" from="-615037285" to="-568955932" departLane="best" type="motorcycle_motorcycle"/>
    <trip id="motorcycle119" depart="771.27" from="109565742" to="586556424#2" departLane="best" type="motorcycle_motorcycle" departSpeed="max"/>
    <trip id="motorcycle120" depart="777.75" from="33836187#2" to="-586657906#0" departLane="best" type="motorcycle_motorcycle"/>
    <trip id="motorcycle121" depart="784.23" from="-33836187#2" to="586659413" departLane="best" type="motorcycle_motorcycle"/>
    <trip id="motorcycle122" depart="790.71" from="-444806104#1" to="586314122#2" departLane="best" type="motorcycle_motorcycle" departSpeed="max"/>
    <trip id="motorcycle123" depart="797.19" from="33197140#2" to="-579925088" departLane="best" type="motorcycle_motorcycle"/>
    <trip id="motorcycle124" depart="803.67" from="880026447" to="568973576" departLane="best" type="motorcycle_motorcycle"/>
    <trip id="motorcycle125" depart="810.15" from="586568472" to="628456652#1" departLane="best" type="motorcycle_motorcycle" departSpeed="max"/>
    <trip id="motorcycle126" depart="816.63" from="-674860564" to="-260062647#0" departLane="best" type="motorcycle_motorcycle" departSpeed="max"/>
    <trip id="motorcycle127" depart="823.12" from="-1009076942" to="1369976043" departLane="best" type="motorcycle_motorcycle" departSpeed="max"/>
    <trip id="motorcycle128" depart="829.60" from="586657906#0" to="337540068#2" departLane="best" type="motorcycle_motorcycle" departSpeed="max"/>
    <trip id="motorcycle129" depart="836.08" from="631863278#0" to="-282891298#1" departLane="best" type="motorcycle_motorcycle" departSpeed="max"/>
    <trip id="motorcycle130" depart="842.56" from="-568955931#2" to="-230283483#7" departLane="best" type="motorcycle_motorcycle" departSpeed="max"/>
    <trip id="motorcycle131" depart="849.04" from="579914855#0" to="340934815#1" departLane="best" type="motorcycle_motorcycle" departSpeed="max"/>
    <trip id="motorcycle132" depart="855.52" from="631863278#0" to="337540068#2" departLane="best" type="motorcycle_motorcycle" departSpeed="max"/>
    <trip id="motorcycle133" depart="862.00" from="33195669" to="674860564" departLane="best" type="motorcycle_motorcycle" departSpeed="max"/>
    <trip id="motorcycle134" depart="868.48" from="-444475430" to="-444805125#1" departLane="best" type="motorcycle_motorcycle"/>
    <trip id="motorcycle135" depart="874.96" from="1117713209#1" to="579914859" departLane="best" type="motorcycle_motorcycle"/>
    <trip id="motorcycle136" depart="881.45" from="628504012#2" to="-444805124#0" departLane="best" type="motorcycle_motorcycle"/>
    <trip id="motorcycle137" depart="887.93" from="-204122962" to="-586569891" departLane="best" type="motorcycle_motorcycle" departSpeed="max"/>
    <trip id="motorcycle138" depart="894.41" from="109565742" to="568955931#2" departLane="best" type="motorcycle_motorcycle" departSpeed="max"/>
    <trip id="motorcycle139" depart="900.89" from="444805127#0" to="515235348#0" departLane="best" type="motorcycle_motorcycle" departSpeed="max"/>
    <trip id="motorcycle140" depart="907.37" from="-555601438#2" to="555601438#2" departLane="best" type="motorcycle_motorcycle" departSpeed="max"/>
    <trip id="motorcycle141" depart="913.85" from="555600351#0" to="-444475977" departLane="best" type="motorcycle_motorcycle" departSpeed="max"/>
    <trip id="motorcycle142" depart="920.33" from="579914861" to="282891298#1" departLane="best" type="motorcycle_motorcycle" departSpeed="max"/>
    <trip id="motorcycle143" depart="926.81" from="630358350#4" to="-444805127#2" departLane="best" type="motorcycle_motorcycle"/>
    <trip id="motorcycle144" depart="933.30" from="631906580" to="444477816#1" departLane="best" type="motorcycle_motorcycle" departSpeed="max"/>
    <trip id="motorcycle145" depart="939.78" from="-1369976043" to="-444805127#0" departLane="best" type="motorcycle_motorcycle" departSpeed="max"/>
    <trip id="motorcycle146" depart="946.26" from="282840329" to="674860564" departLane="best" type="motorcycle_motorcycle" departSpeed="max"/>
    <trip id="motorcycle147" depart="952.74" from="586319513" to="-555604170" departLane="best" type="motorcycle_motorcycle" departSpeed="max"/>
    <trip id="motorcycle148" depart="959.22" from="282840329" to="1009076942" departLane="best" type="motorcycle_motorcycle" departSpeed="max"/>
    <trip id="motorcycle149" depart="965.70" from="-1043469298#1" to="-444806103" departLane="best" type="motorcycle_motorcycle" departSpeed="max"/>
    <trip id="motorcycle150" depart="972.18" from="230244707" to="1009076942" departLane="best" type="motorcycle_motorcycle" departSpeed="max"/>
    <trip id="motorcycle151" depart="978.66" from="444477814#0" to="-555600351#0" departLane="best" type="motorcycle_motorcycle" departSpeed="max"/>
    <trip id="motorcycle152" depart="985.15" from="-586326406#0" to="-260062647#0" departLane="best" type="motorcycle_motorcycle"/>
    <trip id="motorcycle153" depart="991.63" from="-444806104#1" to="-579914861" departLane="best" type="motorcycle_motorcycle" departSpeed="max"/>
    <trip id="motorcycle154" depart="998.11" from="230218149#0" to="-586593626" departLane="best" type="motorcycle_motorcycle" departSpeed="max"/>
    <trip id="motorcycle155" depart="1004.59" from="33195669" to="350146685#0" departLane="best" type="motorcycle_motorcycle" departSpeed="max"/>
    <trip id="motorcycle156" depart="1011.07" from="-1049377330#1" to="359450388" departLane="best" type="motorcycle_motorcycle"/>
    <trip id="motorcycle157" depart="1017.55" from="260062647#0" to="586593626" departLane="best" type="motorcycle_motorcycle" departSpeed="max"/>
    <trip id="motorcycle158" depart="1024.03" from="-586368631" to="704235788" departLane="best" type="motorcycle_motorcycle"/>
    <trip id="motorcycle159" depart="1030.51" from="-444761097#1" to="1009076942" departLane="best" type="motorcycle_motorcycle" departSpeed="max"/>
    <trip id="motorcycle160" depart="1037.00" from="515235348#1" to="-555604170" departLane="best" type="motorcycle_motorcycle"/>
    <trip id="motorcycle161" depart="1043.48" from="-258136093#0" to="204122962" departLane="best" type="motorcycle_motorcycle"/>
    <trip id="motorcycle162" depart="1049.96" from="-340934820#8" to="-579914857#0" departLane="best" type="motorcycle_motorcycle" departSpeed="max"/>
    <trip id="motorcycle163" depart="1056.44" from="368104071#1" to="368104071#4" departLane="best" type="motorcycle_motorcycle"/>
    <trip id="motorcycle164" depart="1062.92" from="-340934815#1" to="-579925088" departLane="best" type="motorcycle_motorcycle" departSpeed="max"/>
    <trip id="motorcycle165" depart="1069.40" from="337540075" to="33836187#5" departLane="best" type="motorcycle_motorcycle" departSpeed="max"/>
    <trip id="motorcycle166" depart="1075.88" from="579925088" to="579914859" departLane="best" type="motorcycle_motorcycle" departSpeed="max"/>
    <trip id="motorcycle167" depart="1082.36" from="232778101#2" to="1369976043" departLane="best" type="motorcycle_motorcycle"/>
    <trip id="motorcycle168" depart="1088.85" from="-628456652#1" to="890146631#2" departLane="best" type="motorcycle_motorcycle" departSpeed="max"/>
    <trip id="motorcycle169" depart="1095.33" from="230283484#2" to="230183328#0" departLane="best" type="motorcycle_motorcycle"/>
    <trip id="motorcycle170" depart="1101.81" from="-898487480#0" to="-1118659371" departLane="best" type="motorcycle_motorcycle"/>
    <trip id="motorcycle171" depart="1108.29" from="260062647#0" to="444806104#1" departLane="best" type="motorcycle_motorcycle" departSpeed="max"/>
    <trip id="motorcycle172" depart="1114.77" from="-258226028#0" to="-227131720#0" departLane="best" type="motorcycle_motorcycle"/>
    <trip id="motorcycle173" depart="1121.25" from="-1121692938#2" to="1121692938#2" departLane="best" type="motorcycle_motorcycle" departSpeed="max"/>
    <trip id="motorcycle174" depart="1127.73" from="-340934820#8" to="-444806104#0" departLane="best" type="motorcycle_motorcycle" departSpeed="max"/>
    <trip id="motorcycle175" depart="1134.21" from="568955932" to="568973576" departLane="best" type="motorcycle_motorcycle" departSpeed="max"/>
    <trip id="motorcycle176" depart="1140.70" from="258226050#0" to="586556424#3" departLane="best" type="motorcycle_motorcycle" departSpeed="max"/>
    <trip id="motorcycle177" depart="1147.18" from="1049377330#4" to="-258136097#2" departLane="best" type="motorcycle_motorcycle"/>
    <trip id="motorcycle178" depart="1153.66" from="579914861" to="-444806103" departLane="best" type="motorcycle_motorcycle" departSpeed="max"/>
    <trip id="motorcycle179" depart="1160.14" from="-579777169" to="258245655#7" departLane="best" type="motorcycle_motorcycle" departSpeed="max"/>
    <trip id="motorcycle180" depart="1166.62" from="-586326406#1" to="-258226053#2" departLane="best" type="motorcycle_motorcycle"/>
    <trip id="motorcycle181" depart="1173.10" from="579914857#0" to="-579914861" departLane="best" type="motorcycle_motorcycle" departSpeed="max"/>
    <trip id="motorcycle182" depart="1179.58" from="259202701#0" to="-611491296#3" departLane="best" type="motorcycle_motorcycle" departSpeed="max"/>
    <trip id="motorcycle183" depart="1186.06" from="-628456652#1" to="516511594#4" departLane="best" type="motorcycle_motorcycle" departSpeed="max"/>
    <trip id="motorcycle184" depart="1192.54" from="-340934820#8" to="-444806104#0" departLane="best" type="motorcycle_motorcycle" departSpeed="max"/>
    <trip id="motorcycle185" depart="1199.03" from="232778103#0" to="-568955932" departLane="best" type="motorcycle_motorcycle"/>
    <trip id="motorcycle186" depart="1205.51" from="579925088" to="-579914855#0" departLane="best" type="motorcycle_motorcycle" departSpeed="max"/>
    <trip id="motorcycle187" depart="1211.99" from="579914857#0" to="-1121692938#0" departLane="best" type="motorcycle_motorcycle" departSpeed="max"/>
    <trip id="motorcycle188" depart="1218.47" from="586367049#2" to="-586657906#0" departLane="best" type="motorcycle_motorcycle"/>
    <trip id="motorcycle189" depart="1224.95" from="230218149#0" to="586373149#0" departLane="best" type="motorcycle_motorcycle" departSpeed="max"/>
    <trip id="motorcycle190" depart="1231.43" from="579914861" to="-444477816#0" departLane="best" type="motorcycle_motorcycle" departSpeed="max"/>
    <trip id="motorcycle191" depart="1237.91" from="444806104#0" to="-230244707" departLane="best" type="motorcycle_motorcycle" departSpeed="max"/>
    <trip id="motorcycle192" depart="1244.39" from="-628456652#1" to="368104091#5" departLane="best" type="motorcycle_motorcycle" departSpeed="max"/>
    <trip id="motorcycle193" depart="1250.88" from="368104091#1" to="-586657906#0" departLane="best" type="motorcycle_motorcycle"/>
    <trip id="motorcycle194" depart="1257.36" from="-568973576" to="-579914855#0" departLane="best" type="motorcycle_motorcycle" departSpeed="max"/>
    <trip id="motorcycle195" depart="1263.84" from="-586658921" to="-586575935" departLane="best" type="motorcycle_motorcycle"/>
    <trip id="motorcycle196" depart="1270.32" from="-555601438#2" to="1312476767#1" departLane="best" type="motorcycle_motorcycle" departSpeed="max"/>
    <trip id="motorcycle197" depart="1276.80" from="586568472" to="568973576" departLane="best" type="motorcycle_motorcycle" departSpeed="max"/>
    <trip id="motorcycle198" depart="1283.28" from="-258245655#8" to="444806104#1" departLane="best" type="motorcycle_motorcycle"/>
    <trip id="motorcycle199" depart="1289.76" from="568955932" to="-444798085#1" departLane="best" type="motorcycle_motorcycle" departSpeed="max"/>
    <trip id="motorcycle200" depart="1296.24" from="444805127#0" to="-586663581#0" departLane="best" type="motorcycle_motorcycle" departSpeed="max"/>
    <trip id="motorcycle201" depart="1302.73" from="116690479#0" to="-260062647#0" departLane="best" type="motorcycle_motorcycle"/>