<?xml version="1.0" encoding="UTF-8"?>

<!-- generated on 2025-08-11 19:32:34.905389 by osmWebWizard.py UNKNOWN
<configuration>
    <net-file value="/home/sour/Sumo/2025-08-11-19-32-20/osm.net.xml.gz"/>
    <output-trip-file value="/home/sour/Sumo/2025-08-11-19-32-20/osm.bus.trips.xml"/>
    <route-file value="/home/sour/Sumo/2025-08-11-19-32-20/osm.bus.rou.xml"/>
    <prefix value="bus"/>
    <trip-attributes value="departLane=&quot;best&quot;"/>
    <fringe-start-attributes value="departSpeed=&quot;max&quot;"/>
    <vehicle-class value="bus"/>
    <fringe-factor value="5"/>
    <edge-permission value="bus"/>
    <via-edge-types value="highway.motorway,highway.motorway_link,highway.trunk_link,highway.primary_link,highway.secondary_link,highway.tertiary_link"/>
    <min-distance value="600.0"/>
    <min-distance.fringe value="10.0"/>
    <remove-loops value="True"/>
    <insertion-density value="20.0"/>
</configuration>
-->

<routes xmlns:xsi="http://www.w3.org/2001/XMLSchema-instance" xsi:noNamespaceSchemaLocation="http://sumo.dlr.de/xsd/routes_file.xsd">
    <vType id="bus_bus" vClass="bus"/>
    <trip id="bus0" depart="0.00" from="-368286982" to="-367762382#1" departLane="best" type="bus_bus" departSpeed="max"/>
    <trip id="bus1" depart="3.59" from="615037319#0" to="-227131720#0" departLane="best" type="bus_bus"/>
    <trip id="bus2" depart="7.18" from="-628456652#1" to="-116690479#1" departLane="best" type="bus_bus" departSpeed="max"/>
    <trip id="bus3" depart="10.77" from="-368027023#1" to="116690479#3" departLane="best" type="bus_bus"/>
    <trip id="bus4" depart="14.36" from="-109505207#0" to="-359450383#0" departLane="best" type="bus_bus"/>
    <trip id="bus5" depart="17.95" from="-368027034" to="337132072#4" departLane="best" type="bus_bus"/>
    <trip id="bus6" depart="21.54" from="462986979" to="367700934#1" departLane="best" type="bus_bus"/>
    <trip id="bus7" depart="25.13" from="-587793740" to="-337540075" departLane="best" type="bus_bus" departSpeed="max"/>
    <trip id="bus8" depart="28.71" from="620874944" to="-586659718" departLane="best" type="bus_bus" departSpeed="max"/>
    <trip id="bus9" depart="32.30" from="-227100507#0" to="-323987231#0" departLane="best" type="bus_bus"/>
    <trip id="bus10" depart="35.89" from="586657908#0" to="337540073" departLane="best" type="bus_bus"/>
    <trip id="bus11" depart="39.48" from="462987550" to="368096545#2" departLane="best" type="bus_bus"/>
    <trip id="bus12" depart="43.07" from="1324287528#0" to="795671604#3" departLane="best" type="bus_bus"/>
    <trip id="bus13" depart="46.66" from="-620775234#2" to="227019974#1" departLane="best" type="bus_bus" departSpeed="max"/>
    <trip id="bus14" depart="50.25" from="586595416" to="33973140#0" departLane="best" type="bus_bus" departSpeed="max"/>
    <trip id="bus15" depart="53.84" from="586664246#2" to="327075459#0" departLane="best" type="bus_bus"/>
    <trip id="bus16" depart="57.43" from="367194255#4" to="-116690593#0" departLane="best" type="bus_bus"/>
    <trip id="bus17" depart="61.02" from="-368096544#1" to="-444476598" departLane="best" type="bus_bus"/>
    <trip id="bus18" depart="64.61" from="-226946949" to="-368027027#0" departLane="best" type="bus_bus" departSpeed="max"/>
    <trip id="bus19" depart="68.20" from="-327075459#1" to="-368190050#0" departLane="best" type="bus_bus"/>
    <trip id="bus20" depart="71.79" from="337540075" to="-620768869#2" departLane="best" type="bus_bus" departSpeed="max"/>
    <trip id="bus21" depart="75.38" from="-620768869#2" to="-367700883#1" departLane="best" type="bus_bus"/>
    <trip id="bus22" depart="78.97" from="-368209083" to="620862578#6" departLane="best" type="bus_bus" departSpeed="max"/>
    <trip id="bus23" depart="82.55" from="-34990516#1" to="368096545#2" departLane="best" type="bus_bus"/>
    <trip id="bus24" depart="86.14" from="890146631" to="341456566" departLane="best" type="bus_bus"/>
    <trip id="bus25" depart="89.73" from="586657042#0" to="444811599#1" departLane="best" type="bus_bus"/>
    <trip id="bus26" depart="93.32" from="-555601438#2" to="-368104071#5" departLane="best" type="bus_bus" departSpeed="max"/>
    <trip id="bus27" depart="96.91" from="-367762382#0" to="620865939" departLane="best" type="bus_bus"/>
    <trip id="bus28" depart="100.50" from="587800915#5" to="-462987553" departLane="best" type="bus_bus"/>
    <trip id="bus29" depart="104.09" from="33973140#3" to="-620862579" departLane="best" type="bus_bus"/>
    <trip id="bus30" depart="107.68" from="620768869#4" to="103759573" departLane="best" type="bus_bus"/>
    <trip id="bus31" depart="111.27" from="-368209083" to="-368096544#2" departLane="best" type="bus_bus" departSpeed="max"/>
    <trip id="bus32" depart="114.86" from="227131720#0" to="-368104071#1" departLane="best" type="bus_bus" departSpeed="max"/>
    <trip id="bus33" depart="118.45" from="-620862578#6" to="-367707574#1" departLane="best" type="bus_bus" departSpeed="max"/>
    <trip id="bus34" depart="122.04" from="977815033#0" to="116690593#1" departLane="best" type="bus_bus"/>
    <trip id="bus35" depart="125.63" from="444811599#0" to="-795671604#0" departLane="best" type="bus_bus" departSpeed="max"/>
    <trip id="bus36" depart="129.22" from="-1324287528#2" to="-620849594" departLane="best" type="bus_bus"/>
    <trip id="bus37" depart="132.80" from="795671604#1" to="587800915#0" departLane="best" type="bus_bus"/>
    <trip id="bus38" depart="136.39" from="-337132072#3" to="-850677551#0" departLane="best" type="bus_bus"/>
    <trip id="bus39" depart="139.98" from="1012133718#3" to="621949168#2" departLane="best" type="bus_bus"/>
    <trip id="bus40" depart="143.57" from="116690593#0" to="-341456542" departLane="best" type="bus_bus" departSpeed="max"/>
    <trip id="bus41" depart="147.16" from="620768869#3" to="587800918#2" departLane="best" type="bus_bus"/>
    <trip id="bus42" depart="150.75" from="337132049" to="-337540075" departLane="best" type="bus_bus" departSpeed="max"/>
    <trip id="bus43" depart="154.34" from="368104091#2" to="226946947" departLane="best" type="bus_bus"/>
    <trip id="bus44" depart="157.93" from="380090117#0" to="1324287528#3" departLane="best" type="bus_bus"/>
    <trip id="bus45" depart="161.52" from="-1012133718#0" to="-555600351#0" departLane="best" type="bus_bus"/>
    <trip id="bus46" depart="165.11" from="-555600352" to="-1304287974" departLane="best" type="bus_bus"/>
    <trip id="bus47" depart="168.70" from="587800918#1" to="620865939" departLane="best" type="bus_bus"/>
    <trip id="bus48" depart="172.29" from="-227019974#1" to="109505208#1" departLane="best" type="bus_bus" departSpeed="max"/>
    <trip id="bus49" depart="175.88" from="-226946947" to="368204852" departLane="best" type="bus_bus" departSpeed="max"/>
    <trip id="bus50" depart="179.47" from="368104091#5" to="-337132049" departLane="best" type="bus_bus"/>
    <trip id="bus51" depart="183.06" from="109505208#0" to="226946949" departLane="best" type="bus_bus"/>
    <trip id="bus52" depart="186.64" from="-368209083" to="587800918#3" departLane="best" type="bus_bus" departSpeed="max"/>
    <trip id="bus53" depart="190.23" from="1324287528#3" to="368096545#3" departLane="best" type="bus_bus"/>
    <trip id="bus54" depart="193.82" from="-367700883#3" to="-462987552#0" departLane="best" type="bus_bus" departSpeed="max"/>
    <trip id="bus55" depart="197.41" from="898487494#1" to="34990514#4" departLane="best" type="bus_bus"/>
    <trip id="bus56" depart="201.00" from="-586664246#4" to="337132072#3" departLane="best" type="bus_bus"/>
    <trip id="bus57" depart="204.59" from="-368096544#3" to="-367762378" departLane="best" type="bus_bus"/>
    <trip id="bus58" depart="208.18" from="-226946947" to="341456563" departLane="best" type="bus_bus" departSpeed="max"/>
    <trip id="bus59" depart="211.77" from="-368096544#2" to="620768866#1" departLane="best" type="bus_bus"/>
    <trip id="bus60" depart="215.36" from="586664246#0" to="-1408953126#0" departLane="best" type="bus_bus"/>
    <trip id="bus61" depart="218.95" from="-368096546#0" to="359450383#1" departLane="best" type="bus_bus"/>
    <trip id="bus62" depart="222.54" from="-367762382#3" to="-337132049" departLane="best" type="bus_bus"/>
    <trip id="bus63" depart="226.13" from="620862578#1" to="292749336#3" departLane="best" type="bus_bus"/>
    <trip id="bus64" depart="229.72" from="109505207#3" to="444826908#0" departLane="best" type="bus_bus"/>
    <trip id="bus65" depart="233.31" from="462987550" to="-350146685#1" departLane="best" type="bus_bus"/>
    <trip id="bus66" depart="236.90" from="-253653636" to="-795671604#6" departLane="best" type="bus_bus"/>
    <trip id="bus67" depart="240.48" from="-644261214" to="103765643#1" departLane="best" type="bus_bus"/>
    <trip id="bus68" depart="244.07" from="368027034" to="362871972#1" departLane="best" type="bus_bus"/>
    <trip id="bus69" depart="247.66" from="850677551#3" to="-323987231#0" departLane="best" type="bus_bus"/>
    <trip id="bus70" depart="251.25" from="-620865939" to="-586664246#0" departLane="best" type="bus_bus" departSpeed="max"/>
    <trip id="bus71" depart="254.84" from="586664246#2" to="-368096545#0" departLane="best" type="bus_bus"/>
    <trip id="bus72" depart="258.43" from="-628456652#1" to="-368190050#0" departLane="best" type="bus_bus" departSpeed="max"/>
    <trip id="bus73" depart="262.02" from="-368104071#5" to="620775234#2" departLane="best" type="bus_bus"/>
    <trip id="bus74" depart="265.61" from="-861783801" to="587800915#1" departLane="best" type="bus_bus"/>
    <trip id="bus75" depart="269.20" from="977815033#1" to="586657908#3" departLane="best" type="bus_bus"/>
    <trip id="bus76" depart="272.79" from="739723515#1" to="620862578#0" departLane="best" type="bus_bus"/>
    <trip id="bus77" depart="276.38" from="586657908#1" to="-33768805#5" departLane="best" type="bus_bus"/>
    <trip id="bus78" depart="279.97" from="116690479#0" to="-367700934#1" departLane="best" type="bus_bus"/>
    <trip id="bus79" depart="283.56" from="-620775234#2" to="850677552" departLane="best" type="bus_bus" departSpeed="max"/>
    <trip id="bus80" depart="287.15" from="620874944" to="898487494#1" departLane="best" type="bus_bus" departSpeed="max"/>
    <trip id="bus81" depart="290.74" from="-341456566" to="-444811599#1" departLane="best" type="bus_bus" departSpeed="max"/>
    <trip id="bus82" depart="294.32" from="739723515#1" to="327075459#1" departLane="best" type="bus_bus"/>
    <trip id="bus83" depart="297.91" from="-1304287974" to="337132072#0" departLane="best" type="bus_bus"/>
    <trip id="bus84" depart="301.50" from="116690593#0" to="586664246#2" departLane="best" type="bus_bus" departSpeed="max"/>
    <trip id="bus85" depart="305.09" from="-34990514#0" to="628456652#1" departLane="best" type="bus_bus"/>
    <trip id="bus86" depart="308.68" from="-226946949" to="-34990516#0" departLane="best" type="bus_bus" departSpeed="max"/>
    <trip id="bus87" depart="312.27" from="331675474" to="362871972#2" departLane="best" type="bus_bus" departSpeed="max"/>
    <trip id="bus88" depart="315.86" from="-368096545#3" to="-335575150" departLane="best" type="bus_bus"/>
    <trip id="bus89" depart="319.45" from="615037303" to="-368096544#2" departLane="best" type="bus_bus" departSpeed="max"/>
    <trip id="bus90" depart="323.04" from="331675474" to="33973140#0" departLane="best" type="bus_bus" departSpeed="max"/>
    <trip id="bus91" depart="326.63" from="-628456652#1" to="337132072#0" departLane="best" type="bus_bus" departSpeed="max"/>
    <trip id="bus92" depart="330.22" from="1305093055#0" to="620862578#6" departLane="best" type="bus_bus"/>
    <trip id="bus93" depart="333.81" from="-368096546#1" to="-620862579" departLane="best" type="bus_bus"/>
    <trip id="bus94" depart="337.40" from="34990515#2" to="-444826908#0" departLane="best" type="bus_bus"/>
    <trip id="bus95" depart="340.99" from="-226946947" to="1012133729" departLane="best" type="bus_bus" departSpeed="max"/>
    <trip id="bus96" depart="344.57" from="977815033#0" to="898487494#1" departLane="best" type="bus_bus"/>
    <trip id="bus97" depart="348.16" from="-226946947" to="-367700934#1" departLane="best" type="bus_bus" departSpeed="max"/>
    <trip id="bus98" depart="351.75" from="-368209083" to="620862578#5" departLane="best" type="bus_bus" departSpeed="max"/>
    <trip id="bus99" depart="355.34" from="587800918#3" to="615037320#1" departLane="best" type="bus_bus"/>
    <trip id="bus100" depart="358.93" from="-620768869#2" to="-337540075" departLane="best" type="bus_bus"/>
    <trip id="bus101" depart="362.52" from="586595416" to="367707574#2" departLane="best" type="bus_bus" departSpeed="max"/>
    <trip id="bus102" depart="366.11" from="337132049" to="888879165" departLane="best" type="bus_bus" departSpeed="max"/>
    <trip id="bus103" depart="369.70" from="555600351#0" to="-444826908#0" departLane="best" type="bus_bus" departSpeed="max"/>
    <trip id="bus104" depart="373.29" from="341096510#0" to="620862578#6" departLane="best" type="bus_bus" departSpeed="max"/>
    <trip id="bus105" depart="376.88" from="-337132072#1" to="227019974#1" departLane="best" type="bus_bus"/>
    <trip id="bus106" depart="380.47" from="-368286982" to="337540073" departLane="best" type="bus_bus" departSpeed="max"/>
    <trip id="bus107" depart="384.06" from="337540075" to="-368104071#2" departLane="best" type="bus_bus" departSpeed="max"/>
    <trip id="bus108" depart="387.65" from="116690479#2" to="620768866#1" departLane="best" type="bus_bus"/>
    <trip id="bus109" depart="391.24" from="-644261214" to="-368104091#6" departLane="best" type="bus_bus"/>
    <trip id="bus110" depart="394.83" from="337540075" to="-368104071#0" departLane="best" type="bus_bus" departSpeed="max"/>
    <trip id="bus111" depart="398.41" from="368096545#2" to="227019974#0" departLane="best" type="bus_bus"/>
    <trip id="bus112" depart="402.00" from="-795671604#0" to="-103765643#3" departLane="best" type="bus_bus"/>
    <trip id="bus113" depart="405.59" from="-226946949" to="615037321" departLane="best" type="bus_bus" departSpeed="max"/>
    <trip id="bus114" depart="409.18" from="586595416" to="337132054" departLane="best" type="bus_bus" departSpeed="max"/>
    <trip id="bus115" depart="412.77" from="-555600352" to="620768866#0" departLane="best" type="bus_bus"/>
    <trip id="bus116" depart="416.36" from="-368104071#4" to="-327075459#1" departLane="best" type="bus_bus"/>
    <trip id="bus117" depart="419.95" from="-620865939" to="33973140#1" departLane="best" type="bus_bus" departSpeed="max"/>
    <trip id="bus118" depart="423.54" from="586664246#4" to="795671604#5" departLane="best" type="bus_bus"/>
    <trip id="bus119" depart="427.13" from="462987552#1" to="615037320#2" departLane="best" type="bus_bus"/>
    <trip id="bus120" depart="430.72" from="-109505204#2" to="368096547#0" departLane="best" type="bus_bus"/>
    <trip id="bus121" depart="434.31" from="-586661204" to="620862578#3" departLane="best" type="bus_bus"/>
    <trip id="bus122" depart="437.90" from="462987552#1" to="-368104071#4" departLane="best" type="bus_bus"/>
    <trip id="bus123" depart="441.49" from="-368027038" to="555601438#0" departLane="best" type="bus_bus"/>
    <trip id="bus124" depart="445.08" from="-586659413" to="587800915#3" departLane="best" type="bus_bus" departSpeed="max"/>
    <trip id="bus125" depart="448.67" from="739723515#0" to="-368190050#0" departLane="best" type="bus_bus"/>
    <trip id="bus126" depart="452.25" from="33768805#0" to="-620869256" departLane="best" type="bus_bus"/>
    <trip id="bus127" depart="455.84" from="850677551#0" to="212414966" departLane="best" type="bus_bus"/>
    <trip id="bus128" depart="459.43" from="795671604#0" to="-341456542" departLane="best" type="bus_bus"/>
    <trip id="bus129" depart="463.02" from="621949168#4" to="-368104071#3" departLane="best" type="bus_bus"/>
    <trip id="bus130" depart="466.61" from="-337132072#10" to="-850677551#0" departLane="best" type="bus_bus"/>
    <trip id="bus131" depart="470.20" from="368027027#2" to="-462987552#1" departLane="best" type="bus_bus"/>
    <trip id="bus132" depart="473.79" from="335575150" to="116690596#1" departLane="best" type="bus_bus" departSpeed="max"/>
    <trip id="bus133" depart="477.38" from="1324287528#2" to="368027038" departLane="best" type="bus_bus"/>
    <trip id="bus134" depart="480.97" from="368096545#3" to="362714491" departLane="best" type="bus_bus"/>
    <trip id="bus135" depart="484.56" from="-620768866#1" to="-1408953126#0" departLane="best" type="bus_bus" departSpeed="max"/>
    <trip id="bus136" depart="488.15" from="341096510#1" to="-555601438#1" departLane="best" type="bus_bus"/>
    <trip id="bus137" depart="491.74" from="-555600865" to="-620874944" departLane="best" type="bus_bus"/>
    <trip id="bus138" depart="495.33" from="-620863350" to="-444811599#0" departLane="best" type="bus_bus"/>
    <trip id="bus139" depart="498.92" from="-33768805#1" to="-739723515#0" departLane="best" type="bus_bus"/>
    <trip id="bus140" depart="502.50" from="620862578#5" to="364177895#0" departLane="best" type="bus_bus"/>
    <trip id="bus141" depart="506.09" from="-462987552#1" to="226946949" departLane="best" type="bus_bus"/>
    <trip id="bus142" depart="509.68" from="-1012133718#0" to="-444476598" departLane="best" type="bus_bus"/>
    <trip id="bus143" depart="513.27" from="-795671604#2" to="336988370#0" departLane="best" type="bus_bus"/>
    <trip id="bus144" depart="516.86" from="-861783801" to="-367700934#1" departLane="best" type="bus_bus"/>
    <trip id="bus145" depart="520.45" from="109505207#3" to="620768866#1" departLane="best" type="bus_bus"/>
    <trip id="bus146" depart="524.04" from="444826908#0" to="-33836788#2" departLane="best" type="bus_bus"/>
    <trip id="bus147" depart="527.63" from="34990516#0" to="-367762382#2" departLane="best" type="bus_bus"/>
    <trip id="bus148" depart="531.22" from="-367700883#3" to="-109505208#3" departLane="best" type="bus_bus" departSpeed="max"/>
    <trip id="bus149" depart="534.81" from="-368104071#1" to="1049377329" departLane="best" type="bus_bus"/>
    <trip id="bus150" depart="538.40" from="586657908#2" to="-1408953126#0" departLane="best" type="bus_bus"/>
    <trip id="bus151" depart="541.99" from="33973140#4" to="-1012133729" departLane="best" type="bus_bus"/>
    <trip id="bus152" depart="545.58" from="368096547#2" to="368286982" departLane="best" type="bus_bus"/>
    <trip id="bus153" depart="549.17" from="-337132072#0" to="-795671604#2" departLane="best" type="bus_bus"/>
    <trip id="bus154" depart="552.76" from="-368104071#4" to="586661204" departLane="best" type="bus_bus"/>
    <trip id="bus155" depart="556.34" from="1012133719" to="462986979" departLane="best" type="bus_bus" departSpeed="max"/>
    <trip id="bus156" depart="559.93" from="34990514#1" to="888879165" departLane="best" type="bus_bus"/>
    <trip id="bus157" depart="563.52" from="615037318" to="33768805#3" departLane="best" type="bus_bus"/>
    <trip id="bus158" depart="567.11" from="586595416" to="226946949" departLane="best" type="bus_bus" departSpeed="max"/>
    <trip id="bus159" depart="570.70" from="615037321" to="368104071#2" departLane="best" type="bus_bus"/>
    <trip id="bus160" depart="574.29" from="109505207#4" to="-368096547#1" departLane="best" type="bus_bus"/>
    <trip id="bus161" depart="577.88" from="-368104071#3" to="341456566" departLane="best" type="bus_bus"/>
    <trip id="bus162" depart="581.47" from="368104091#5" to="1305093055#1" departLane="best" type="bus_bus"/>
    <trip id="bus163" depart="585.06" from="337132072#8" to="-368104091#4" departLane="best" type="bus_bus"/>
    <trip id="bus164" depart="588.65" from="-368286982" to="-555600351#0" departLane="best" type="bus_bus" departSpeed="max"/>
    <trip id="bus165" depart="592.24" from="1408953124#1" to="-337132072#2" departLane="best" type="bus_bus"/>
    <trip id="bus166" depart="595.83" from="367700883#0" to="-1324287528#2" departLane="best" type="bus_bus"/>
    <trip id="bus167" depart="599.42" from="-620865939" to="226946947" departLane="best" type="bus_bus" departSpeed="max"/>
    <trip id="bus168" depart="603.01" from="-628456652#0" to="-367194255#4" departLane="best" type="bus_bus"/>
    <trip id="bus169" depart="606.60" from="-628456652#1" to="620768866#1" departLane="best" type="bus_bus" departSpeed="max"/>
    <trip id="bus170" depart="610.18" from="323987231#1" to="367700883#3" departLane="best" type="bus_bus"/>
    <trip id="bus171" depart="613.77" from="586659718" to="368209083" departLane="best" type="bus_bus"/>
    <trip id="bus172" depart="617.36" from="-620775234#2" to="-1012133729" departLane="best" type="bus_bus" departSpeed="max"/>
    <trip id="bus173" depart="620.95" from="586657908#4" to="621949168#2" departLane="best" type="bus_bus"/>
    <trip id="bus174" depart="624.54" from="-628456652#1" to="368104071#5" departLane="best" type="bus_bus" departSpeed="max"/>
    <trip id="bus175" depart="628.13" from="1408953126#0" to="337540073" departLane="best" type="bus_bus" departSpeed="max"/>
    <trip id="bus176" depart="631.72" from="-795671604#7" to="-116690479#1" departLane="best" type="bus_bus"/>
    <trip id="bus177" depart="635.31" from="-620865939" to="-33768805#4" departLane="best" type="bus_bus" departSpeed="max"/>
    <trip id="bus178" depart="638.90" from="109505204#0" to="-337132049" departLane="best" type="bus_bus"/>
    <trip id="bus179" depart="642.49" from="337132072#4" to="-1117713207#1" departLane="best" type="bus_bus"/>
    <trip id="bus180" depart="646.08" from="-620862578#6" to="227131720#1" departLane="best" type="bus_bus" departSpeed="max"/>
    <trip id="bus181" depart="649.67" from="-109505207#1" to="34990514#1" departLane="best" type="bus_bus"/>
    <trip id="bus182" depart="653.26" from="368104071#0" to="586657908#0" departLane="best" type="bus_bus"/>
    <trip id="bus183" depart="656.85" from="-368104091#1" to="-227100507#1" departLane="best" type="bus_bus"/>
    <trip id="bus184" depart="660.44" from="977815033#1" to="-615037320#2" departLane="best" type="bus_bus"/>
    <trip id="bus185" depart="664.02" from="33973140#0" to="368104091#4" departLane="best" type="bus_bus"/>
    <trip id="bus186" depart="667.61" from="620869256" to="-359450383#0" departLane="best" type="bus_bus" departSpeed="max"/>
    <trip id="bus187" depart="671.20" from="-103765643#0" to="-337540075" departLane="best" type="bus_bus"/>
    <trip id="bus188" depart="674.79" from="227131720#0" to="-367707574#0" departLane="best" type="bus_bus" departSpeed="max"/>
    <trip id="bus189" depart="678.38" from="367194255#0" to="368209083" departLane="best" type="bus_bus"/>
    <trip id="bus190" depart="681.97" from="-34990515#1" to="33768751" departLane="best" type="bus_bus"/>
    <trip id="bus191" depart="685.56" from="368096547#0" to="-331675474" departLane="best" type="bus_bus"/>
    <trip id="bus192" depart="689.15" from="-337132072#1" to="-109505208#4" departLane="best" type="bus_bus"/>
    <trip id="bus193" depart="692.74" from="-555601438#1" to="364177895#0" departLane="best" type="bus_bus"/>
    <trip id="bus194" depart="696.33" from="362871972#0" to="341456542" departLane="best" type="bus_bus"/>
    <trip id="bus195" depart="699.92" from="-327075459#1" to="368286982" departLane="best" type="bus_bus"/>
    <trip id="bus196" depart="703.51" from="586657908#2" to="337540073" departLane="best" type="bus_bus"/>
    <trip id="bus197" depart="707.10" from="444476598" to="-615037318" departLane="best" type="bus_bus" departSpeed="max"/>
    <trip id="bus198" depart="710.69" from="-795671604#1" to="-620772305#1" departLane="best" type="bus_bus"/>
    <trip id="bus199" depart="714.27" from="116690593#1" to="-586664246#1" departLane="best" type="bus_bus"/>
    <trip id="bus200" depart="717.86" from="586657908#1" to="555601438#2" departLane="best" type="bus_bus"/>
    <trip id="bus201" depart="721.45" from="-337132054" to="628456652#1" departLane="best" type="bus_bus"/>
    <trip id="bus202" depart="725.04" from="367700883#1" to="-850677551#1" departLane="best" type="bus_bus"/>
    <trip id="bus203" depart="728.63" from="-368286982" to="462987553" departLane="best" type="bus_bus" departSpeed="max"/>
    <trip id="bus204" depart="732.22" from="-795671604#6" to="368096545#3" departLane="best" type="bus_bus"/>
    <trip id="bus205" depart="735.81" from="-368209083" to="586664246#1" departLane="best" type="bus_bus" departSpeed="max"/>
    <trip id="bus206" depart="739.40" from="586595416" to="-227131720#0" departLane="best" type="bus_bus" departSpeed="max"/>
    <trip id="bus207" depart="742.99" from="587800918#4" to="-368096544#0" departLane="best" type="bus_bus"/>
    <trip id="bus208" depart="746.58" from="103765643#1" to="33768805#1" departLane="best" type="bus_bus"/>
    <trip id="bus209" depart="750.17" from="-620775234#2" to="-116690479#1" departLane="best" type="bus_bus" departSpeed="max"/>
    <trip id="bus210" depart="753.76" from="586657908#2" to="-34990514#2" departLane="best" type="bus_bus"/>
    <trip id="bus211" depart="757.35" from="-367762382#1" to="444826919#2" departLane="best" type="bus_bus"/>
    <trip id="bus212" depart="760.94" from="-587793740" to="615037320#1" departLane="best" type="bus_bus" departSpeed="max"/>
    <trip id="bus213" depart="764.53" from="367194255#1" to="-368104091#5" departLane="best" type="bus_bus"/>
    <trip id="bus214" depart="768.11" from="-1012133718#4" to="620865939" departLane="best" type="bus_bus" departSpeed="max"/>
    <trip id="bus215" depart="771.70" from="-227019974#1" to="368027055" departLane="best" type="bus_bus" departSpeed="max"/>
    <trip id="bus216" depart="775.29" from="362871972#0" to="34990514#4" departLane="best" type="bus_bus"/>
    <trip id="bus217" depart="778.88" from="116690480#0" to="444826919#2" departLane="best" type="bus_bus" departSpeed="max"/>
    <trip id="bus218" depart="782.47" from="-227100507#1" to="-367762382#0" departLane="best" type="bus_bus"/>
    <trip id="bus219" depart="786.06" from="362871972#1" to="-444826919#1" departLane="best" type="bus_bus"/>
    <trip id="bus220" depart="789.65" from="323987231#0" to="1049377329" departLane="best" type="bus_bus" departSpeed="max"/>
    <trip id="bus221" depart="793.24" from="1309954088" to="-795671604#2" departLane="best" type="bus_bus" departSpeed="max"/>
    <trip id="bus222" depart="796.83" from="368096546#0" to="-555601438#1" departLane="best" type="bus_bus"/>
    <trip id="bus223" depart="800.42" from="367194255#2" to="-368104091#1" departLane="best" type="bus_bus"/>
    <trip id="bus224" depart="804.01" from="-368104091#0" to="-335575150" departLane="best" type="bus_bus"/>
    <trip id="bus225" depart="807.60" from="-367700883#1" to="-335575150" departLane="best" type="bus_bus"/>
    <trip id="bus226" depart="811.19" from="1324287528#0" to="368209083" departLane="best" type="bus_bus"/>
    <trip id="bus227" depart="814.78" from="1122773432#0" to="368096544#2" departLane="best" type="bus_bus"/>
    <trip id="bus228" depart="818.37" from="795671604#5" to="1307885878" departLane="best" type="bus_bus"/>
    <trip id="bus229" depart="821.95" from="-444811602" to="-323987231#1" departLane="best" type="bus_bus" departSpeed="max"/>
    <trip id="bus230" depart="825.54" from="1312476762" to="-368104091#4" departLane="best" type="bus_bus"/>
    <trip id="bus231" depart="829.13" from="795671604#3" to="227019974#1" departLane="best" type="bus_bus"/>
    <trip id="bus232" depart="832.72" from="364177895#1" to="-337132049" departLane="best" type="bus_bus"/>
    <trip id="bus233" depart="836.31" from="587218913" to="109505208#4" departLane="best" type="bus_bus"/>
    <trip id="bus234" depart="839.90" from="587800915#3" to="292749336#6" departLane="best" type="bus_bus"/>
    <trip id="bus235" depart="843.49" from="620862578#5" to="109505204#1" departLane="best" type="bus_bus"/>
    <trip id="bus236" depart="847.08" from="555600351#1" to="-620869256" departLane="best" type="bus_bus"/>
    <trip id="bus237" depart="850.67" from="-226946947" to="341456563" departLane="best" type="bus_bus" departSpeed="max"/>
    <trip id="bus238" depart="854.26" from="-1222974661" to="-337540069#0" departLane="best" type="bus_bus"/>
    <trip id="bus239" depart="857.85" from="227131720#0" to="-444826908#3" departLane="best" type="bus_bus" departSpeed="max"/>
    <trip id="bus240" depart="861.44" from="898487494#0" to="-335575150" departLane="best" type="bus_bus"/>
    <trip id="bus241" depart="865.03" from="444811599#0" to="-367762382#3" departLane="best" type="bus_bus" departSpeed="max"/>
    <trip id="bus242" depart="868.62" from="1305093055#0" to="1012133718#3" departLane="best" type="bus_bus"/>
    <trip id="bus243" depart="872.21" from="-861783801" to="587800915#0" departLane="best" type="bus_bus"/>
    <trip id="bus244" depart="875.79" from="337132072#3" to="33768805#1" departLane="best" type="bus_bus"/>
    <trip id="bus245" depart="879.38" from="368096545#1" to="620865939" departLane="best" type="bus_bus"/>
    <trip id="bus246" depart="882.97" from="341096510#0" to="-337540075" departLane="best" type="bus_bus" departSpeed="max"/>
    <trip id="bus247" depart="886.56" from="-350146685#1" to="-1408953126#0" departLane="best" type="bus_bus"/>
    <trip id="bus248" depart="890.15" from="331675474" to="-444811599#0" departLane="best" type="bus_bus" departSpeed="max"/>
    <trip id="bus249" depart="893.74" from="359450383#0" to="620775234#2" departLane="best" type="bus_bus"/>
    <trip id="bus250" depart="897.33" from="444811599#0" to="341096510#1" departLane="best" type="bus_bus" departSpeed="max"/>
    <trip id="bus251" depart="900.92" from="341096510#0" to="620862578#5" departLane="best" type="bus_bus" departSpeed="max"/>
    <trip id="bus252" depart="904.51" from="-739723515#0" to="226946949" departLane="best" type="bus_bus"/>