<?xml version="1.0" encoding="UTF-8"?>

<!-- generated on 2025-11-04 15:58:03 by Eclipse SUMO netedit Version 1.24.0
-->

<routes xmlns:xsi="http://www.w3.org/2001/XMLSchema-instance" xsi:noNamespaceSchemaLocation="http://sumo.dlr.de/xsd/routes_file.xsd">
    <!-- VTypes -->
    <vType id="motorcycle_motorcycle" vClass="motorcycle"/>
    <!-- Vehicles, persons and containers (sorted by depart) -->
    <trip id="motorcycle0" type="motorcycle_motorcycle" depart="0.00" departLane="best" departSpeed="max" from="-555600348" to="587800918#5"/>
    <trip id="motorcycle1" type="motorcycle_motorcycle" depart="6.91" departLane="best" departSpeed="max" from="-555600352" to="362714491"/>
    <trip id="motorcycle2" type="motorcycle_motorcycle" depart="13.82" departLane="best" departSpeed="max" from="367762382#0" to="888879165#0"/>
    <trip id="motorcycle3" type="motorcycle_motorcycle" depart="20.73" departLane="best" departSpeed="max" from="1307885878" to="362714491"/>
    <trip id="motorcycle4" type="motorcycle_motorcycle" depart="27.64" departLane="best" from="-350146688#3" to="350146691#0"/>
    <trip id="motorcycle5" type="motorcycle_motorcycle" depart="34.55" departLane="best" departSpeed="max" from="1305093055#0" to="890146629"/>
    <trip id="motorcycle6" type="motorcycle_motorcycle" depart="41.46" departLane="best" departSpeed="max" from="323987231#0" to="587800918#5"/>
    <trip id="motorcycle7" type="motorcycle_motorcycle" depart="48.37" departLane="best" departSpeed="max" from="1307885878" to="-350146691#1"/>
    <trip id="motorcycle8" type="motorcycle_motorcycle" depart="55.27" departLane="best" departSpeed="max" from="587800915#0" to="888879165#0"/>
    <trip id="motorcycle9" type="motorcycle_motorcycle" depart="62.18" departLane="best" departSpeed="max" from="1305093055#0" to="-350146688#1"/>
    <trip id="motorcycle10" type="motorcycle_motorcycle" depart="69.09" departLane="best" departSpeed="max" from="323987231#0" to="362714491"/>
    <trip id="motorcycle11" type="motorcycle_motorcycle" depart="76.00" departLane="best" departSpeed="max" from="515970250" to="555600352"/>
    <trip id="motorcycle12" type="motorcycle_motorcycle" depart="82.91" departLane="best" departSpeed="max" from="323987231#0" to="555600348"/>
    <trip id="motorcycle13" type="motorcycle_motorcycle" depart="89.82" departLane="best" departSpeed="max" from="1305093055#0" to="-323987231#0"/>
    <trip id="motorcycle14" type="motorcycle_motorcycle" depart="96.73" departLane="best" departSpeed="max" from="-555600348" to="977815031"/>
    <trip id="motorcycle15" type="motorcycle_motorcycle" depart="103.64" departLane="best" departSpeed="max" from="587800915#0" to="1117713206"/>
    <trip id="motorcycle16" type="motorcycle_motorcycle" depart="110.55" departLane="best" departSpeed="max" from="587800915#0" to="555600348"/>
    <trip id="motorcycle17" type="motorcycle_motorcycle" depart="117.46" departLane="best" departSpeed="max" from="-555600352" to="890146629"/>
    <trip id="motorcycle18" type="motorcycle_motorcycle" depart="124.37" departLane="best" departSpeed="max" from="350146688#0" to="977815031"/>
    <trip id="motorcycle19" type="motorcycle_motorcycle" depart="131.28" departLane="best" departSpeed="max" from="367762382#0" to="-350146688#1"/>
    <trip id="motorcycle20" type="motorcycle_motorcycle" depart="138.19" departLane="best" departSpeed="max" from="350146688#0" to="888879165#0"/>
    <trip id="motorcycle21" type="motorcycle_motorcycle" depart="145.10" departLane="best" departSpeed="max" from="587800915#0" to="1117713206"/>
    <trip id="motorcycle22" type="motorcycle_motorcycle" depart="152.01" departLane="best" departSpeed="max" from="323987231#0" to="587800918#5"/>
    <trip id="motorcycle23" type="motorcycle_motorcycle" depart="158.92" departLane="best" departSpeed="max" from="-555600352" to="890146629"/>
    <trip id="motorcycle24" type="motorcycle_motorcycle" depart="165.82" departLane="best" departSpeed="max" from="515970250" to="-323987231#0"/>
    <trip id="motorcycle25" type="motorcycle_motorcycle" depart="172.73" departLane="best" departSpeed="max" from="350146688#0" to="1305093055#1"/>
    <trip id="motorcycle26" type="motorcycle_motorcycle" depart="179.64" departLane="best" departSpeed="max" from="-888879165#3" to="555600352"/>
    <trip id="motorcycle27" type="motorcycle_motorcycle" depart="186.55" departLane="best" departSpeed="max" from="615037319" to="555600348"/>
    <trip id="motorcycle28" type="motorcycle_motorcycle" depart="193.46" departLane="best" departSpeed="max" from="-555600352" to="362714491"/>
    <trip id="motorcycle29" type="motorcycle_motorcycle" depart="200.37" departLane="best" departSpeed="max" from="515970250" to="977815031"/>
    <trip id="motorcycle30" type="motorcycle_motorcycle" depart="207.28" departLane="best" departSpeed="max" from="367762382#0" to="-323987231#0"/>
    <trip id="motorcycle31" type="motorcycle_motorcycle" depart="214.19" departLane="best" departSpeed="max" from="615037319" to="555600352"/>
    <trip id="motorcycle32" type="motorcycle_motorcycle" depart="221.10" departLane="best" departSpeed="max" from="-555600348" to="-350146688#1"/>
    <trip id="motorcycle33" type="motorcycle_motorcycle" depart="228.01" departLane="best" departSpeed="max" from="-555600348" to="555600352"/>
    <trip id="motorcycle34" type="motorcycle_motorcycle" depart="234.92" departLane="best" departSpeed="max" from="-555600352" to="888879165#0"/>
    <trip id="motorcycle35" type="motorcycle_motorcycle" depart="241.83" departLane="best" departSpeed="max" from="-555600352" to="555600348"/>
    <trip id="motorcycle36" type="motorcycle_motorcycle" depart="248.74" departLane="best" departSpeed="max" from="1307885878" to="-323987231#0"/>
    <trip id="motorcycle37" type="motorcycle_motorcycle" depart="255.65" departLane="best" from="-109505204#2" to="890146629"/>
    <trip id="motorcycle38" type="motorcycle_motorcycle" depart="262.56" departLane="best" departSpeed="max" from="615037319" to="-350146688#1"/>
    <trip id="motorcycle39" type="motorcycle_motorcycle" depart="269.47" departLane="best" departSpeed="max" from="367762382#0" to="977815031"/>
    <trip id="motorcycle40" type="motorcycle_motorcycle" depart="276.37" departLane="best" departSpeed="max" from="587800915#0" to="890146629"/>
    <trip id="motorcycle41" type="motorcycle_motorcycle" depart="283.28" departLane="best" from="109505207#0" to="587800918#5"/>
    <trip id="motorcycle42" type="motorcycle_motorcycle" depart="290.19" departLane="best" from="258656153#1" to="977815031"/>
    <trip id="motorcycle43" type="motorcycle_motorcycle" depart="297.10" departLane="best" departSpeed="max" from="367762382#0" to="890146629"/>
    <trip id="motorcycle44" type="motorcycle_motorcycle" depart="304.01" departLane="best" departSpeed="max" from="587800915#0" to="1305093055#1"/>
    <trip id="motorcycle45" type="motorcycle_motorcycle" depart="310.92" departLane="best" departSpeed="max" from="367762382#0" to="-350146685#1"/>
    <trip id="motorcycle46" type="motorcycle_motorcycle" depart="317.83" departLane="best" departSpeed="max" from="-888879165#3" to="977815031"/>
    <trip id="motorcycle47" type="motorcycle_motorcycle" depart="324.74" departLane="best" departSpeed="max" from="1305093055#0" to="587800918#5"/>
    <trip id="motorcycle48" type="motorcycle_motorcycle" depart="331.65" departLane="best" from="341096510#1" to="109505204#0"/>
    <trip id="motorcycle49" type="motorcycle_motorcycle" depart="338.56" departLane="best" departSpeed="max" from="350146688#0" to="890146631#1"/>
    <trip id="motorcycle50" type="motorcycle_motorcycle" depart="345.47" departLane="best" departSpeed="max" from="-888879165#3" to="-586664246#2"/>
    <trip id="motorcycle51" type="motorcycle_motorcycle" depart="352.38" departLane="best" from="586664246#2" to="587800918#5"/>
    <trip id="motorcycle52" type="motorcycle_motorcycle" depart="359.29" departLane="best" departSpeed="max" from="615037319" to="586657042#3"/>
    <trip id="motorcycle53" type="motorcycle_motorcycle" depart="366.20" departLane="best" departSpeed="max" from="615037319" to="-739723515#1"/>
    <trip id="motorcycle54" type="motorcycle_motorcycle" depart="373.11" departLane="best" departSpeed="max" from="-888879165#3" to="-739723515#1"/>
    <trip id="motorcycle55" type="motorcycle_motorcycle" depart="380.02" departLane="best" departSpeed="max" from="1305093055#0" to="977815031"/>
    <trip id="motorcycle56" type="motorcycle_motorcycle" depart="386.92" departLane="best" departSpeed="max" from="-888879165#3" to="362714491"/>
    <trip id="motorcycle57" type="motorcycle_motorcycle" depart="393.83" departLane="best" departSpeed="max" from="-555600348" to="-323987231#0"/>
    <trip id="motorcycle58" type="motorcycle_motorcycle" depart="400.74" departLane="best" departSpeed="max" from="323987231#0" to="555600352"/>
    <trip id="motorcycle59" type="motorcycle_motorcycle" depart="407.65" departLane="best" departSpeed="max" from="587800915#0" to="977815031"/>
    <trip id="motorcycle60" type="motorcycle_motorcycle" depart="414.56" departLane="best" departSpeed="max" from="350146688#0" to="109505207#0"/>
    <trip id="motorcycle61" type="motorcycle_motorcycle" depart="421.47" departLane="best" departSpeed="max" from="-555600352" to="888879165#0"/>
    <trip id="motorcycle62" type="motorcycle_motorcycle" depart="428.38" departLane="best" departSpeed="max" from="-555600352" to="-109505208#1"/>
    <trip id="motorcycle63" type="motorcycle_motorcycle" depart="435.29" departLane="best" departSpeed="max" from="367762382#0" to="-350146688#1"/>
    <trip id="motorcycle64" type="motorcycle_motorcycle" depart="442.20" departLane="best" departSpeed="max" from="350146688#0" to="-739723515#1"/>
    <trip id="motorcycle65" type="motorcycle_motorcycle" depart="449.11" departLane="best" departSpeed="max" from="1307885878" to="-258656153#3"/>
    <trip id="motorcycle66" type="motorcycle_motorcycle" depart="456.02" departLane="best" departSpeed="max" from="1305093055#0" to="1117713206"/>
    <trip id="motorcycle67" type="motorcycle_motorcycle" depart="462.93" departLane="best" from="341096510#1" to="587800918#5"/>
    <trip id="motorcycle68" type="motorcycle_motorcycle" depart="469.84" departLane="best" departSpeed="max" from="-888879165#3" to="-323987231#0"/>
    <trip id="motorcycle69" type="motorcycle_motorcycle" depart="476.75" departLane="best" departSpeed="max" from="-977815031" to="587800918#5"/>
    <trip id="motorcycle70" type="motorcycle_motorcycle" depart="483.66" departLane="best" departSpeed="max" from="-555600348" to="587800918#5"/>
    <trip id="motorcycle71" type="motorcycle_motorcycle" depart="490.56" departLane="best" departSpeed="max" from="-555600352" to="-739723515#1"/>
    <trip id="motorcycle72" type="motorcycle_motorcycle" depart="497.47" departLane="best" departSpeed="max" from="367762382#0" to="362714491"/>
    <trip id="motorcycle73" type="motorcycle_motorcycle" depart="504.38" departLane="best" departSpeed="max" from="350146688#0" to="1117713206"/>
    <trip id="motorcycle74" type="motorcycle_motorcycle" depart="511.29" departLane="best" departSpeed="max" from="367762382#0" to="1117713206"/>
    <trip id="motorcycle75" type="motorcycle_motorcycle" depart="518.20" departLane="best" departSpeed="max" from="1307885878" to="362714491"/>
    <trip id="motorcycle76" type="motorcycle_motorcycle" depart="525.11" departLane="best" departSpeed="max" from="615037319" to="587800918#5"/>
    <trip id="motorcycle77" type="motorcycle_motorcycle" depart="532.02" departLane="best" departSpeed="max" from="323987231#0" to="890146629"/>
    <trip id="motorcycle78" type="motorcycle_motorcycle" depart="538.93" departLane="best" departSpeed="max" from="350146688#0" to="587800918#5"/>
    <trip id="motorcycle79" type="motorcycle_motorcycle" depart="545.84" departLane="best" departSpeed="max" from="323987231#0" to="555600348"/>
    <trip id="motorcycle80" type="motorcycle_motorcycle" depart="552.75" departLane="best" departSpeed="max" from="-888879165#3" to="977815031"/>
    <trip id="motorcycle81" type="motorcycle_motorcycle" depart="559.66" departLane="best" departSpeed="max" from="350146688#0" to="888879165#0"/>
    <trip id="motorcycle82" type="motorcycle_motorcycle" depart="566.57" departLane="best" departSpeed="max" from="350146688#0" to="-323987231#0"/>
    <trip id="motorcycle83" type="motorcycle_motorcycle" depart="573.48" departLane="best" departSpeed="max" from="-555600352" to="890146629"/>
    <trip id="motorcycle84" type="motorcycle_motorcycle" depart="580.39" departLane="best" departSpeed="max" from="367762382#0" to="890146629"/>
    <trip id="motorcycle85" type="motorcycle_motorcycle" depart="587.30" departLane="best" departSpeed="max" from="587800915#0" to="-739723515#1"/>
    <trip id="motorcycle86" type="motorcycle_motorcycle" depart="594.21" departLane="best" from="890146631#0" to="555600352"/>
    <trip id="motorcycle87" type="motorcycle_motorcycle" depart="601.11" departLane="best" departSpeed="max" from="367762382#0" to="555600348"/>
    <trip id="motorcycle88" type="motorcycle_motorcycle" depart="608.02" departLane="best" from="-888879166" to="362714491"/>
    <trip id="motorcycle89" type="motorcycle_motorcycle" depart="614.93" departLane="best" departSpeed="max" from="1307885878" to="1117713206"/>
    <trip id="motorcycle90" type="motorcycle_motorcycle" depart="621.84" departLane="best" from="109505208#2" to="362714491"/>
    <trip id="motorcycle91" type="motorcycle_motorcycle" depart="628.75" departLane="best" departSpeed="max" from="515970250" to="1305093055#1"/>
    <trip id="motorcycle92" type="motorcycle_motorcycle" depart="635.66" departLane="best" departSpeed="max" from="1305093055#0" to="888879165#0"/>
    <trip id="motorcycle93" type="motorcycle_motorcycle" depart="642.57" departLane="best" departSpeed="max" from="367762382#0" to="362714491"/>
    <trip id="motorcycle94" type="motorcycle_motorcycle" depart="649.48" departLane="best" departSpeed="max" from="-888879165#3" to="362714491"/>
    <trip id="motorcycle95" type="motorcycle_motorcycle" depart="656.39" departLane="best" departSpeed="max" from="1305093055#0" to="977815031"/>
    <trip id="motorcycle96" type="motorcycle_motorcycle" depart="663.30" departLane="best" departSpeed="max" from="-888879165#3" to="555600352"/>
    <trip id="motorcycle97" type="motorcycle_motorcycle" depart="670.21" departLane="best" departSpeed="max" from="323987231#0" to="-323987231#0"/>
    <trip id="motorcycle98" type="motorcycle_motorcycle" depart="677.12" departLane="best" departSpeed="max" from="-888879165#3" to="890146629"/>
    <trip id="motorcycle99" type="motorcycle_motorcycle" depart="684.03" departLane="best" departSpeed="max" from="515970250" to="-739723515#1"/>
    <trip id="motorcycle100" type="motorcycle_motorcycle" depart="690.94" departLane="best" from="-586664246#2" to="977815031"/>
    <trip id="motorcycle101" type="motorcycle_motorcycle" depart="697.85" departLane="best" departSpeed="max" from="350146688#0" to="587800918#5"/>
    <trip id="motorcycle102" type="motorcycle_motorcycle" depart="704.76" departLane="best" from="258656153#3" to="890146631#2"/>
    <trip id="motorcycle103" type="motorcycle_motorcycle" depart="711.66" departLane="best" departSpeed="max" from="-888879165#3" to="-739723515#1"/>
    <trip id="motorcycle104" type="motorcycle_motorcycle" depart="718.57" departLane="best" departSpeed="max" from="587800915#0" to="890146629"/>
    <trip id="motorcycle105" type="motorcycle_motorcycle" depart="725.48" departLane="best" departSpeed="max" from="323987231#0" to="-350146688#1"/>
    <trip id="motorcycle106" type="motorcycle_motorcycle" depart="732.39" departLane="best" departSpeed="max" from="587800915#0" to="1117713206"/>
    <trip id="motorcycle107" type="motorcycle_motorcycle" depart="739.30" departLane="best" departSpeed="max" from="515970250" to="-739723515#1"/>
    <trip id="motorcycle108" type="motorcycle_motorcycle" depart="746.21" departLane="best" departSpeed="max" from="-555600352" to="587800918#5"/>
    <trip id="motorcycle109" type="motorcycle_motorcycle" depart="753.12" departLane="best" departSpeed="max" from="1305093055#0" to="1305093055#1"/>
    <trip id="motorcycle110" type="motorcycle_motorcycle" depart="760.03" departLane="best" departSpeed="max" from="1307885878" to="362714491"/>
    <trip id="motorcycle111" type="motorcycle_motorcycle" depart="766.94" departLane="best" departSpeed="max" from="1307885878" to="555600352"/>
    <trip id="motorcycle112" type="motorcycle_motorcycle" depart="773.85" departLane="best" departSpeed="max" from="-555600352" to="586664246#0"/>
    <trip id="motorcycle113" type="motorcycle_motorcycle" depart="780.76" departLane="best" departSpeed="max" from="1307885878" to="888879165#0"/>
    <trip id="motorcycle114" type="motorcycle_motorcycle" depart="787.67" departLane="best" departSpeed="max" from="-888879165#3" to="587800918#5"/>
    <trip id="motorcycle115" type="motorcycle_motorcycle" depart="794.58" departLane="best" departSpeed="max" from="367762382#0" to="555600348"/>
    <trip id="motorcycle116" type="motorcycle_motorcycle" depart="801.49" departLane="best" departSpeed="max" from="1307885878" to="977815031"/>
    <trip id="motorcycle117" type="motorcycle_motorcycle" depart="808.40" departLane="best" departSpeed="max" from="1305093055#0" to="-323987231#0"/>
    <trip id="motorcycle118" type="motorcycle_motorcycle" depart="815.31" departLane="best" departSpeed="max" from="587800915#0" to="890146629"/>
    <trip id="motorcycle119" type="motorcycle_motorcycle" depart="822.21" departLane="best" departSpeed="max" from="-888879165#3" to="555600352"/>
    <trip id="motorcycle120" type="motorcycle_motorcycle" depart="829.12" departLane="best" departSpeed="max" from="-888879165#3" to="890146629"/>
    <trip id="motorcycle121" type="motorcycle_motorcycle" depart="836.03" departLane="best" departSpeed="max" from="1305093055#0" to="-323987231#0"/>
    <trip id="motorcycle122" type="motorcycle_motorcycle" depart="842.94" departLane="best" departSpeed="max" from="350146688#0" to="-323987231#0"/>
    <trip id="motorcycle123" type="motorcycle_motorcycle" depart="849.85" departLane="best" departSpeed="max" from="587800915#0" to="977815031"/>
    <trip id="motorcycle124" type="motorcycle_motorcycle" depart="856.76" departLane="best" departSpeed="max" from="350146688#0" to="-739723515#1"/>
    <trip id="motorcycle125" type="motorcycle_motorcycle" depart="863.67" departLane="best" departSpeed="max" from="515970250" to="-323987231#0"/>
    <trip id="motorcycle126" type="motorcycle_motorcycle" depart="870.58" departLane="best" departSpeed="max" from="-555600352" to="1117713206"/>
    <trip id="motorcycle127" type="motorcycle_motorcycle" depart="877.49" departLane="best" departSpeed="max" from="-555600348" to="890146629"/>
    <trip id="motorcycle128" type="motorcycle_motorcycle" depart="884.40" departLane="best" departSpeed="max" from="367762382#0" to="888879165#0"/>
    <trip id="motorcycle129" type="motorcycle_motorcycle" depart="891.31" departLane="best" from="350146688#6" to="-739723515#1"/>
    <trip id="motorcycle130" type="motorcycle_motorcycle" depart="898.22" departLane="best" departSpeed="max" from="515970250" to="555600352"/>
    <trip id="motorcycle131" type="motorcycle_motorcycle" depart="905.13" departLane="best" departSpeed="max" from="1305093055#0" to="555600352"/>
    <trip id="motorcycle132" type="motorcycle_motorcycle" depart="912.04" departLane="best" departSpeed="max" from="587800915#0" to="555600352"/>
    <trip id="motorcycle133" type="motorcycle_motorcycle" depart="918.95" departLane="best" departSpeed="max" from="1307885878" to="555600352"/>
    <trip id="motorcycle134" type="motorcycle_motorcycle" depart="925.85" departLane="best" departSpeed="max" from="-888879165#3" to="362714491"/>
    <trip id="motorcycle135" type="motorcycle_motorcycle" depart="932.76" departLane="best" departSpeed="max" from="587800915#0" to="362714491"/>
    <trip id="motorcycle136" type="motorcycle_motorcycle" depart="939.67" departLane="best" from="-350146685#1" to="888879165#0"/>
    <trip id="motorcycle137" type="motorcycle_motorcycle" depart="946.58" departLane="best" departSpeed="max" from="-555600352" to="-323987231#0"/>
    <trip id="motorcycle138" type="motorcycle_motorcycle" depart="953.49" departLane="best" departSpeed="max" from="350146688#0" to="888879165#0"/>
    <trip id="motorcycle139" type="motorcycle_motorcycle" depart="960.40" departLane="best" departSpeed="max" from="-555600352" to="362714491"/>
    <trip id="motorcycle140" type="motorcycle_motorcycle" depart="967.31" departLane="best" departSpeed="max" from="1307885878" to="-350146688#1"/>
    <trip id="motorcycle141" type="motorcycle_motorcycle" depart="974.22" departLane="best" departSpeed="max" from="350146688#0" to="-739723515#1"/>
    <trip id="motorcycle142" type="motorcycle_motorcycle" depart="981.13" departLane="best" departSpeed="max" from="367762382#0" to="362714491"/>
    <trip id="motorcycle143" type="motorcycle_motorcycle" depart="988.04" departLane="best" departSpeed="max" from="323987231#0" to="-739723515#1"/>
    <trip id="motorcycle144" type="motorcycle_motorcycle" depart="994.95" departLane="best" departSpeed="max" from="515970250" to="-258656153#0"/>
    <trip id="motorcycle145" type="motorcycle_motorcycle" depart="1001.86" departLane="best" departSpeed="max" from="-555600348" to="-258656153#0"/>
    <trip id="motorcycle146" type="motorcycle_motorcycle" depart="1008.77" departLane="best" departSpeed="max" from="323987231#0" to="-323987231#0"/>
    <trip id="motorcycle147" type="motorcycle_motorcycle" depart="1015.68" departLane="best" departSpeed="max" from="-555600352" to="350146691#0"/>
    <trip id="motorcycle148" type="motorcycle_motorcycle" depart="1022.59" departLane="best" departSpeed="max" from="367762382#0" to="-739723515#1"/>
    <trip id="motorcycle149" type="motorcycle_motorcycle" depart="1029.50" departLane="best" from="350146688#6" to="555600348"/>
    <trip id="motorcycle150" type="motorcycle_motorcycle" depart="1036.40" departLane="best" departSpeed="max" from="615037319" to="888879165#0"/>
    <trip id="motorcycle151" type="motorcycle_motorcycle" depart="1043.31" departLane="best" from="898487482" to="1305093055#1"/>
    <trip id="motorcycle152" type="motorcycle_motorcycle" depart="1050.22" departLane="best" departSpeed="max" from="587800915#0" to="1117713206"/>
    <trip id="motorcycle153" type="motorcycle_motorcycle" depart="1057.13" departLane="best" from="-350146691#0" to="587800918#5"/>
    <trip id="motorcycle154" type="motorcycle_motorcycle" depart="1064.04" departLane="best" departSpeed="max" from="-555600348" to="555600352"/>
    <trip id="motorcycle155" type="motorcycle_motorcycle" depart="1070.95" departLane="best" departSpeed="max" from="-555600348" to="350146685#0"/>
    <trip id="motorcycle156" type="motorcycle_motorcycle" depart="1077.86" departLane="best" departSpeed="max" from="-888879165#3" to="977815031"/>
    <trip id="motorcycle157" type="motorcycle_motorcycle" depart="1084.77" departLane="best" departSpeed="max" from="350146688#0" to="1117713206"/>
    <trip id="motorcycle158" type="motorcycle_motorcycle" depart="1091.68" departLane="best" departSpeed="max" from="1305093055#0" to="888879165#0"/>
    <trip id="motorcycle159" type="motorcycle_motorcycle" depart="1098.59" departLane="best" departSpeed="max" from="-888879165#3" to="-350146688#1"/>
    <trip id="motorcycle160" type="motorcycle_motorcycle" depart="1105.50" departLane="best" departSpeed="max" from="1305093055#0" to="977815031"/>
    <trip id="motorcycle161" type="motorcycle_motorcycle" depart="1112.41" departLane="best" departSpeed="max" from="587800915#0" to="362714491"/>
    <trip id="motorcycle162" type="motorcycle_motorcycle" depart="1119.32" departLane="best" departSpeed="max" from="1307885878" to="-350146691#0"/>
    <trip id="motorcycle163" type="motorcycle_motorcycle" depart="1126.23" departLane="best" departSpeed="max" from="367762382#0" to="587800918#5"/>
    <trip id="motorcycle164" type="motorcycle_motorcycle" depart="1133.14" departLane="best" from="-898487483#0" to="555600352"/>
    <trip id="motorcycle165" type="motorcycle_motorcycle" depart="1140.05" departLane="best" departSpeed="max" from="-555600352" to="1117713206"/>
    <trip id="motorcycle166" type="motorcycle_motorcycle" depart="1146.95" departLane="best" departSpeed="max" from="350146688#0" to="362871972#0"/>
    <trip id="motorcycle167" type="motorcycle_motorcycle" depart="1153.86" departLane="best" departSpeed="max" from="1307885878" to="555600348"/>
    <trip id="motorcycle168" type="motorcycle_motorcycle" depart="1160.77" departLane="best" departSpeed="max" from="1307885878" to="-898487483#0"/>
    <trip id="motorcycle169" type="motorcycle_motorcycle" depart="1167.68" departLane="best" departSpeed="max" from="587800915#0" to="888879165#0"/>
    <trip id="motorcycle170" type="motorcycle_motorcycle" depart="1174.59" departLane="best" departSpeed="max" from="1305093055#0" to="1305093055#1"/>
    <trip id="motorcycle171" type="motorcycle_motorcycle" depart="1181.50" departLane="best" departSpeed="max" from="615037319" to="-323987231#0"/>
    <trip id="motorcycle172" type="motorcycle_motorcycle" depart="1188.41" departLane="best" departSpeed="max" from="515970250" to="-350146688#3"/>
    <trip id="motorcycle173" type="motorcycle_motorcycle" depart="1195.32" departLane="best" departSpeed="max" from="-888879165#3" to="1305093055#1"/>
    <trip id="motorcycle174" type="motorcycle_motorcycle" depart="1202.23" departLane="best" departSpeed="max" from="350146688#0" to="1117713206"/>
    <trip id="motorcycle175" type="motorcycle_motorcycle" depart="1209.14" departLane="best" departSpeed="max" from="323987231#0" to="362871972#1"/>
    <trip id="motorcycle176" type="motorcycle_motorcycle" depart="1216.05" departLane="best" departSpeed="max" from="615037319" to="555600348"/>
    <trip id="motorcycle177" type="motorcycle_motorcycle" depart="1222.96" departLane="best" departSpeed="max" from="323987231#0" to="1117713206"/>
    <trip id="motorcycle178" type="motorcycle_motorcycle" depart="1229.87" departLane="best" departSpeed="max" from="367762382#0" to="-1117713207#1"/>
    <trip id="motorcycle179" type="motorcycle_motorcycle" depart="1236.78" departLane="best" from="890146631#0" to="890146629"/>
    <trip id="motorcycle180" type="motorcycle_motorcycle" depart="1243.69" departLane="best" departSpeed="max" from="-555600348" to="587800918#5"/>
    <trip id="motorcycle181" type="motorcycle_motorcycle" depart="1250.59" departLane="best" departSpeed="max" from="-555600352" to="977815031"/>
    <trip id="motorcycle182" type="motorcycle_motorcycle" depart="1257.50" departLane="best" departSpeed="max" from="1307885878" to="587800918#5"/>
    <trip id="motorcycle183" type="motorcycle_motorcycle" depart="1264.41" departLane="best" departSpeed="max" from="-888879165#3" to="555600352"/>
    <trip id="motorcycle184" type="motorcycle_motorcycle" depart="1271.32" departLane="best" departSpeed="max" from="-555600348" to="888879165#0"/>
    <trip id="motorcycle185" type="motorcycle_motorcycle" depart="1278.23" departLane="best" departSpeed="max" from="1307885878" to="362714491"/>
    <trip id="motorcycle186" type="motorcycle_motorcycle" depart="1285.14" departLane="best" departSpeed="max" from="-555600348" to="-350146688#1"/>
    <trip id="motorcycle187" type="motorcycle_motorcycle" depart="1292.05" departLane="best" departSpeed="max" from="1305093055#0" to="555600348"/>
    <trip id="motorcycle188" type="motorcycle_motorcycle" depart="1298.96" departLane="best" departSpeed="max" from="367762382#0" to="-350146688#1"/>
    <trip id="motorcycle189" type="motorcycle_motorcycle" depart="1305.87" departLane="best" from="586657908#2" to="1305093055#1"/>
    <trip id="motorcycle190" type="motorcycle_motorcycle" depart="1312.78" departLane="best" from="890146632" to="1305093055#1"/>
    <trip id="motorcycle191" type="motorcycle_motorcycle" depart="1319.69" departLane="best" departSpeed="max" from="1307885878" to="1305093055#1"/>
    <trip id="motorcycle192" type="motorcycle_motorcycle" depart="1326.60" departLane="best" departSpeed="max" from="-555600348" to="977815031"/>
    <trip id="motorcycle193" type="motorcycle_motorcycle" depart="1333.51" departLane="best" departSpeed="max" from="350146688#0" to="587800918#5"/>
    <trip id="motorcycle194" type="motorcycle_motorcycle" depart="1340.42" departLane="best" departSpeed="max" from="-555600352" to="362714491"/>
    <trip id="motorcycle195" type="motorcycle_motorcycle" depart="1347.33" departLane="best" departSpeed="max" from="1305093055#0" to="555600352"/>
    <trip id="motorcycle196" type="motorcycle_motorcycle" depart="1354.24" departLane="best" departSpeed="max" from="1307885878" to="587800918#5"/>
    <trip id="motorcycle197" type="motorcycle_motorcycle" depart="1361.14" departLane="best" from="890146631#2" to="555600348"/>
    <trip id="motorcycle198" type="motorcycle_motorcycle" depart="1368.05" departLane="best" departSpeed="max" from="515970250" to="977815031"/>
    <trip id="motorcycle199" type="motorcycle_motorcycle" depart="1374.96" departLane="best" departSpeed="max" from="615037319" to="1305093055#1"/>
    <trip id="motorcycle200" type="motorcycle_motorcycle" depart="1381.87" departLane="best" departSpeed="max" from="587800915#0" to="587800918#5"/>
    <trip id="motorcycle201" type="motorcycle_motorcycle" depart="1388.78" departLane="best" from="-350146688#3" to="888879165#0"/>
    <trip id="motorcycle202" type="motorcycle_motorcycle" depart="1395.69" departLane="best" departSpeed="max" from="587800915#0" to="890146629"/>
    <trip id="motorcycle203" type="motorcycle_motorcycle" depart="1402.60" departLane="best" from="109505204#1" to="587800918#5"/>