<?xml version="1.0" encoding="UTF-8"?>

<!-- generated on 2025-10-31 02:08:38 by Eclipse SUMO netedit Version 1.24.0
-->

<routes xmlns:xsi="http://www.w3.org/2001/XMLSchema-instance" xsi:noNamespaceSchemaLocation="http://sumo.dlr.de/xsd/routes_file.xsd">
    <!-- Vehicles, persons and containers (sorted by depart) -->
    <trip id="veh0" type="passenger" depart="0.00" departLane="best" from="-795671604#8" to="227019974#1"/>
    <trip id="veh1" type="passenger" depart="0.72" departLane="best" from="586664247#0" to="-350146685#0"/>
    <trip id="veh2" type="passenger" depart="1.44" departLane="best" from="-33768805#0" to="-103765643#3"/>
    <trip id="veh3" type="passenger" depart="2.15" departLane="best" from="-34990515#1" to="1324287528#2"/>
    <trip id="veh4" type="passenger" depart="2.87" departLane="best" from="898487483#0" to="367700934#3"/>
    <trip id="veh5" type="passenger" depart="3.59" departLane="best" departSpeed="max" from="-620865939" to="-795671604#7"/>
    <trip id="veh6" type="passenger" depart="4.31" departLane="best" from="367700883#2" to="-615037320#1"/>
    <trip id="veh7" type="passenger" depart="5.03" departLane="best" departSpeed="max" from="-226946949" to="586659717"/>
    <trip id="veh8" type="passenger" depart="5.74" departLane="best" departSpeed="max" from="337540075" to="-335575150"/>
    <trip id="veh9" type="passenger" depart="6.46" departLane="best" departSpeed="max" from="-226946947" to="-323987231#1"/>
    <trip id="veh10" type="passenger" depart="7.18" departLane="best" from="620994315#0" to="-331675474"/>
    <trip id="veh11" type="passenger" depart="7.90" departLane="best" from="33768805#5" to="795671604#0"/>
    <trip id="veh12" type="passenger" depart="8.61" departLane="best" from="-109505208#4" to="-621949168#1"/>
    <trip id="veh13" type="passenger" depart="9.33" departLane="best" departSpeed="max" from="116690596#0" to="620771557"/>
    <trip id="veh14" type="passenger" depart="10.05" departLane="best" from="-367700934#0" to="-368104091#5"/>
    <trip id="veh15" type="passenger" depart="10.77" departLane="best" from="362871972#3" to="586657042#2"/>
    <trip id="veh16" type="passenger" depart="11.49" departLane="best" from="109505204#1" to="-116690480#2"/>
    <trip id="veh17" type="passenger" depart="12.20" departLane="best" from="368027055" to="368104071#4"/>
    <trip id="veh18" type="passenger" depart="12.92" departLane="best" from="350146685#1" to="-615037321"/>
    <trip id="veh19" type="passenger" depart="13.64" departLane="best" from="586657042#1" to="34990514#2"/>
    <trip id="veh20" type="passenger" depart="14.36" departLane="best" departSpeed="max" from="337132049" to="227019974#1"/>
    <trip id="veh21" type="passenger" depart="15.08" departLane="best" from="-368104071#5" to="109505207#1"/>
    <trip id="veh22" type="passenger" depart="15.79" departLane="best" from="462987553" to="367700883#2"/>
    <trip id="veh23" type="passenger" depart="16.51" departLane="best" from="-620768869#3" to="586657042#3"/>
    <trip id="veh24" type="passenger" depart="17.23" departLane="best" from="586657908#0" to="-116690593#0"/>
    <trip id="veh25" type="passenger" depart="17.95" departLane="best" from="-34990515#2" to="-368027034"/>
    <trip id="veh26" type="passenger" depart="18.66" departLane="best" from="898487494#1" to="-620849594"/>
    <trip id="veh27" type="passenger" depart="19.38" departLane="best" from="-367762382#2" to="-335575150"/>
    <trip id="veh28" type="passenger" depart="20.10" departLane="best" departSpeed="max" from="-620768866#1" to="586659413"/>
    <trip id="veh29" type="passenger" depart="20.82" departLane="best" from="103765643#1" to="-116690596#1"/>
    <trip id="veh30" type="passenger" depart="21.54" departLane="best" from="33768805#3" to="-337132049"/>
    <trip id="veh31" type="passenger" depart="22.25" departLane="best" from="-367700883#1" to="34990516#2"/>
    <trip id="veh32" type="passenger" depart="22.97" departLane="best" from="586657042#3" to="341456563"/>
    <trip id="veh33" type="passenger" depart="23.69" departLane="best" departSpeed="max" from="-555601438#2" to="350146685#1"/>
    <trip id="veh34" type="passenger" depart="24.41" departLane="best" from="-444826919#0" to="-103765643#0"/>
    <trip id="veh35" type="passenger" depart="25.13" departLane="best" from="-444826919#1" to="367700883#3"/>
    <trip id="veh36" type="passenger" depart="25.84" departLane="best" from="33836788#0" to="-367194255#3"/>
    <trip id="veh37" type="passenger" depart="26.56" departLane="best" from="586657908#1" to="586657908#3"/>
    <trip id="veh38" type="passenger" depart="27.28" departLane="best" from="-462987552#0" to="628456652#1"/>
    <trip id="veh39" type="passenger" depart="28.00" departLane="best" departSpeed="max" from="-444811602" to="-1408953126#0"/>
    <trip id="veh40" type="passenger" depart="28.71" departLane="best" from="1324287528#1" to="587800918#0"/>
    <trip id="veh41" type="passenger" depart="29.43" departLane="best" from="337132072#2" to="227100507#0"/>
    <trip id="veh42" type="passenger" depart="30.15" departLane="best" from="1304287974" to="-444826908#3"/>
    <trip id="veh43" type="passenger" depart="30.87" departLane="best" from="-586658921" to="-795671604#6"/>
    <trip id="veh44" type="passenger" depart="31.59" departLane="best" from="292749336#0" to="620863350"/>
    <trip id="veh45" type="passenger" depart="32.30" departLane="best" departSpeed="max" from="-226946949" to="-368104091#0"/>
    <trip id="veh46" type="passenger" depart="33.02" departLane="best" from="620862579" to="362714491"/>
    <trip id="veh47" type="passenger" depart="33.74" departLane="best" departSpeed="max" from="-226946949" to="1049377329"/>
    <trip id="veh48" type="passenger" depart="34.46" departLane="best" from="34990516#2" to="620768869#1"/>
    <trip id="veh49" type="passenger" depart="35.18" departLane="best" from="227100507#0" to="586657908#1"/>
    <trip id="veh50" type="passenger" depart="35.89" departLane="best" from="-368190050#0" to="367762382#2"/>
    <trip id="veh51" type="passenger" depart="36.61" departLane="best" departSpeed="max" from="323987231#0" to="-227100505#0"/>
    <trip id="veh52" type="passenger" depart="37.33" departLane="best" from="-444826908#3" to="-888879166"/>
    <trip id="veh53" type="passenger" depart="38.05" departLane="best" departSpeed="max" from="-368209083" to="-368096544#3"/>
    <trip id="veh54" type="passenger" depart="38.76" departLane="best" from="337132072#0" to="226946947"/>
    <trip id="veh55" type="passenger" depart="39.48" departLane="best" departSpeed="max" from="-587793740" to="-615037318"/>
    <trip id="veh56" type="passenger" depart="40.20" departLane="best" from="1307885878" to="620768866#1"/>
    <trip id="veh57" type="passenger" depart="40.92" departLane="best" departSpeed="max" from="-227019974#1" to="620768869#1"/>
    <trip id="veh58" type="passenger" depart="41.64" departLane="best" from="620862578#1" to="367700883#1"/>
    <trip id="veh59" type="passenger" depart="42.35" departLane="best" departSpeed="max" from="555600351#0" to="-620874944"/>
    <trip id="veh60" type="passenger" depart="43.07" departLane="best" from="621949168#4" to="368104091#3"/>
    <trip id="veh61" type="passenger" depart="43.79" departLane="best" from="367194255#3" to="1049377329"/>
    <trip id="veh62" type="passenger" depart="44.51" departLane="best" from="-368096545#4" to="367700934#1"/>
    <trip id="veh63" type="passenger" depart="45.23" departLane="best" from="368104071#3" to="-1012133729"/>
    <trip id="veh64" type="passenger" depart="45.94" departLane="best" from="-586664246#1" to="226946949"/>
    <trip id="veh65" type="passenger" depart="46.66" departLane="best" from="-368096544#1" to="-337132072#2"/>
    <trip id="veh66" type="passenger" depart="47.38" departLane="best" from="-367700934#0" to="-109505207#2"/>
    <trip id="veh67" type="passenger" depart="48.10" departLane="best" from="-33768805#3" to="-628456652#0"/>
    <trip id="veh68" type="passenger" depart="48.81" departLane="best" from="-586659718" to="-337132072#10"/>
    <trip id="veh69" type="passenger" depart="49.53" departLane="best" from="620772305#0" to="34990514#4"/>
    <trip id="veh70" type="passenger" depart="50.25" departLane="best" from="364177895#1" to="367700883#3"/>
    <trip id="veh71" type="passenger" depart="50.97" departLane="best" departSpeed="max" from="-587793740" to="337540073"/>
    <trip id="veh72" type="passenger" depart="51.69" departLane="best" departSpeed="max" from="-587793740" to="350146691"/>
    <trip id="veh73" type="passenger" depart="52.40" departLane="best" departSpeed="max" from="586595416" to="-109505207#3"/>
    <trip id="veh74" type="passenger" depart="53.12" departLane="best" from="555600348#0" to="-336988370#1"/>
    <trip id="veh75" type="passenger" depart="53.84" departLane="best" departSpeed="max" from="-103759573" to="-227100505#1"/>
    <trip id="veh76" type="passenger" depart="54.56" departLane="best" departSpeed="max" from="1012133719" to="620862579"/>
    <trip id="veh77" type="passenger" depart="55.28" departLane="best" departSpeed="max" from="615037303" to="586657908#2"/>
    <trip id="veh78" type="passenger" depart="55.99" departLane="best" from="-34990514#2" to="-368204852"/>
    <trip id="veh79" type="passenger" depart="56.71" departLane="best" from="-795671604#5" to="555600348#2"/>
    <trip id="veh80" type="passenger" depart="57.43" departLane="best" from="350146688#5" to="-34990515#1"/>
    <trip id="veh81" type="passenger" depart="58.15" departLane="best" from="-367700883#0" to="1049377329"/>
    <trip id="veh82" type="passenger" depart="58.86" departLane="best" from="462987550" to="367700883#3"/>
    <trip id="veh83" type="passenger" depart="59.58" departLane="best" from="587800918#4" to="117467837"/>
    <trip id="veh84" type="passenger" depart="60.30" departLane="best" departSpeed="max" from="-620865939" to="109505207#3"/>
    <trip id="veh85" type="passenger" depart="61.02" departLane="best" departSpeed="max" from="555600351#0" to="-444811599#2"/>
    <trip id="veh86" type="passenger" depart="61.74" departLane="best" from="-367707574#0" to="586659413"/>
    <trip id="veh87" type="passenger" depart="62.45" departLane="best" departSpeed="max" from="116690596#0" to="34990516#1"/>
    <trip id="veh88" type="passenger" depart="63.17" departLane="best" from="-367194255#1" to="-116690593#0"/>
    <trip id="veh89" type="passenger" depart="63.89" departLane="best" from="-109505208#2" to="-444811599#0"/>
    <trip id="veh90" type="passenger" depart="64.61" departLane="best" from="620862579" to="103765643#1"/>
    <trip id="veh91" type="passenger" depart="65.33" departLane="best" from="-1012133718#3" to="555601438#0"/>
    <trip id="veh92" type="passenger" depart="66.04" departLane="best" departSpeed="max" from="-586659413" to="-34990515#2"/>
    <trip id="veh93" type="passenger" depart="66.76" departLane="best" departSpeed="max" from="341096510#0" to="362871972#2"/>
    <trip id="veh94" type="passenger" depart="67.48" departLane="best" from="-615037320#1" to="368027034"/>
    <trip id="veh95" type="passenger" depart="68.20" departLane="best" from="587800918#2" to="-620768869#1"/>
    <trip id="veh96" type="passenger" depart="68.91" departLane="best" from="1307885878" to="-1012133729"/>
    <trip id="veh97" type="passenger" depart="69.63" departLane="best" from="350146685#0" to="368286982"/>
    <trip id="veh98" type="passenger" depart="70.35" departLane="best" departSpeed="max" from="-620768866#1" to="362871972#3"/>
    <trip id="veh99" type="passenger" depart="71.07" departLane="best" from="620862578#5" to="-34990514#0"/>
    <trip id="veh100" type="passenger" depart="71.79" departLane="best" departSpeed="max" from="555600351#0" to="1122773432#1"/>
    <trip id="veh101" type="passenger" depart="72.50" departLane="best" from="620862579" to="-227100505#0"/>
    <trip id="veh102" type="passenger" depart="73.22" departLane="best" from="-621949168#1" to="-33973140#2"/>
    <trip id="veh103" type="passenger" depart="73.94" departLane="best" from="-444811599#1" to="615037324"/>
    <trip id="veh104" type="passenger" depart="74.66" departLane="best" from="227019974#0" to="-620849594"/>
    <trip id="veh105" type="passenger" depart="75.38" departLane="best" from="621949168#4" to="-1304287973"/>
    <trip id="veh106" type="passenger" depart="76.09" departLane="best" from="292749336#6" to="586657908#4"/>
    <trip id="veh107" type="passenger" depart="76.81" departLane="best" from="1307885878" to="620863350"/>
    <trip id="veh108" type="passenger" depart="77.53" departLane="best" departSpeed="max" from="615037303" to="226946949"/>
    <trip id="veh109" type="passenger" depart="78.25" departLane="best" departSpeed="max" from="-103759573" to="368096547#1"/>
    <trip id="veh110" type="passenger" depart="78.97" departLane="best" departSpeed="max" from="341096510#0" to="-335575150"/>
    <trip id="veh111" type="passenger" depart="79.68" departLane="best" from="555600348#2" to="444826908#2"/>
    <trip id="veh112" type="passenger" depart="80.40" departLane="best" from="33973140#2" to="337132072#3"/>
    <trip id="veh113" type="passenger" depart="81.12" departLane="best" from="103765643#2" to="367700934#2"/>
    <trip id="veh114" type="passenger" depart="81.84" departLane="best" departSpeed="max" from="-628456652#1" to="620775234#2"/>
    <trip id="veh115" type="passenger" depart="82.55" departLane="best" departSpeed="max" from="337132049" to="364177895#2"/>
    <trip id="veh116" type="passenger" depart="83.27" departLane="best" from="227100505#1" to="-335575150"/>
    <trip id="veh117" type="passenger" depart="83.99" departLane="best" from="212414966" to="620772305#1"/>
    <trip id="veh118" type="passenger" depart="84.71" departLane="best" from="-368027038" to="-368104091#2"/>
    <trip id="veh119" type="passenger" depart="85.43" departLane="best" from="-459934830#0" to="-368096544#3"/>
    <trip id="veh120" type="passenger" depart="86.14" departLane="best" departSpeed="max" from="586595416" to="226946949"/>
    <trip id="veh121" type="passenger" depart="86.86" departLane="best" from="-227100505#1" to="1324287528#0"/>
    <trip id="veh122" type="passenger" depart="87.58" departLane="best" from="367707574#1" to="-116690479#0"/>
    <trip id="veh123" type="passenger" depart="88.30" departLane="best" from="-367762382#0" to="-109505207#1"/>
    <trip id="veh124" type="passenger" depart="89.02" departLane="best" from="367707574#1" to="-795671604#3"/>
    <trip id="veh125" type="passenger" depart="89.73" departLane="best" departSpeed="max" from="-103759573" to="-368104071#2"/>
    <trip id="veh126" type="passenger" depart="90.45" departLane="best" from="-367707574#0" to="327075459#0"/>
    <trip id="veh127" type="passenger" depart="91.17" departLane="best" from="-615037320#2" to="34990514#4"/>
    <trip id="veh128" type="passenger" depart="91.89" departLane="best" departSpeed="max" from="227131720#0" to="337540069#0"/>
    <trip id="veh129" type="passenger" depart="92.60" departLane="best" from="-34990516#1" to="-116690593#0"/>
    <trip id="veh130" type="passenger" depart="93.32" departLane="best" from="380090117#0" to="368096544#0"/>
    <trip id="veh131" type="passenger" depart="94.04" departLane="best" from="350146688#3" to="628456652#1"/>
    <trip id="veh132" type="passenger" depart="94.76" departLane="best" from="-586659717" to="368104071#0"/>
    <trip id="veh133" type="passenger" depart="95.48" departLane="best" from="-555600865" to="33768805#1"/>
    <trip id="veh134" type="passenger" depart="96.19" departLane="best" departSpeed="max" from="337540075" to="890146631"/>
    <trip id="veh135" type="passenger" depart="96.91" departLane="best" from="1305093055#0" to="-368096546#0"/>
    <trip id="veh136" type="passenger" depart="97.63" departLane="best" departSpeed="max" from="620874944" to="364177895#2"/>
    <trip id="veh137" type="passenger" depart="98.35" departLane="best" from="-615037320#2" to="-444811599#0"/>
    <trip id="veh138" type="passenger" depart="99.07" departLane="best" from="-109505204#0" to="-227131720#2"/>
    <trip id="veh139" type="passenger" depart="99.78" departLane="best" from="795671604#8" to="292749336#3"/>
    <trip id="veh140" type="passenger" depart="100.50" departLane="best" from="444826908#0" to="-368096546#1"/>
    <trip id="veh141" type="passenger" depart="101.22" departLane="best" from="586657908#1" to="368027023#1"/>
    <trip id="veh142" type="passenger" depart="101.94" departLane="best" from="587800918#1" to="116690479#0"/>
    <trip id="veh143" type="passenger" depart="102.65" departLane="best" departSpeed="max" from="-586659413" to="620775234#2"/>
    <trip id="veh144" type="passenger" depart="103.37" departLane="best" from="292749336#2" to="-795671604#3"/>
    <trip id="veh145" type="passenger" depart="104.09" departLane="best" departSpeed="max" from="1408953126#0" to="-620869256"/>
    <trip id="veh146" type="passenger" depart="104.81" departLane="best" departSpeed="max" from="-227019974#1" to="-116690593#1"/>
    <trip id="veh147" type="passenger" depart="105.53" departLane="best" from="-227100505#1" to="620768866#0"/>
    <trip id="veh148" type="passenger" depart="106.24" departLane="best" from="-620771557" to="-109505208#3"/>
    <trip id="veh149" type="passenger" depart="106.96" departLane="best" from="-795671604#2" to="34990514#4"/>
    <trip id="veh150" type="passenger" depart="107.68" departLane="best" from="33973140#4" to="620768869#3"/>
    <trip id="veh151" type="passenger" depart="108.40" departLane="best" from="-620772305#1" to="621949168#2"/>
    <trip id="veh152" type="passenger" depart="109.12" departLane="best" from="-1012133729" to="-33836788#2"/>
    <trip id="veh153" type="passenger" depart="109.83" departLane="best" from="1305093055#0" to="350146688#0"/>
    <trip id="veh154" type="passenger" depart="110.55" departLane="best" from="-977815033#0" to="444826919#2"/>
    <trip id="veh155" type="passenger" depart="111.27" departLane="best" from="292749336#0" to="-1012133718#0"/>
    <trip id="veh156" type="passenger" depart="111.99" departLane="best" from="-380090117#1" to="-350146691"/>
    <trip id="veh157" type="passenger" depart="112.70" departLane="best" from="34990514#0" to="109505208#0"/>
    <trip id="veh158" type="passenger" depart="113.42" departLane="best" from="890146631" to="620994315#0"/>
    <trip id="veh159" type="passenger" depart="114.14" departLane="best" from="-586659717" to="-116690480#0"/>
    <trip id="veh160" type="passenger" depart="114.86" departLane="best" from="-367194255#4" to="103759573"/>
    <trip id="veh161" type="passenger" depart="115.58" departLane="best" from="1012133718#3" to="103759573"/>
    <trip id="veh162" type="passenger" depart="116.29" departLane="best" from="-227100507#0" to="-555600351#0"/>
    <trip id="veh163" type="passenger" depart="117.01" departLane="best" from="-850677551#1" to="368209083"/>
    <trip id="veh164" type="passenger" depart="117.73" departLane="best" from="-33768751" to="34990514#4"/>
    <trip id="veh165" type="passenger" depart="118.45" departLane="best" departSpeed="max" from="-620865939" to="444826908#1"/>
    <trip id="veh166" type="passenger" depart="119.17" departLane="best" from="364177895#1" to="-367194255#2"/>
    <trip id="veh167" type="passenger" depart="119.88" departLane="best" from="368027023#0" to="-620862578#5"/>
    <trip id="veh168" type="passenger" depart="120.60" departLane="best" from="-586664246#2" to="1408953124#2"/>
    <trip id="veh169" type="passenger" depart="121.32" departLane="best" departSpeed="max" from="-555601438#2" to="-621949168#5"/>
    <trip id="veh170" type="passenger" depart="122.04" departLane="best" departSpeed="max" from="331675474" to="-368096546#0"/>
    <trip id="veh171" type="passenger" depart="122.75" departLane="best" from="586664246#4" to="-444826919#0"/>
    <trip id="veh172" type="passenger" depart="123.47" departLane="best" from="367700883#1" to="628456652#1"/>
    <trip id="veh173" type="passenger" depart="124.19" departLane="best" from="-337132072#0" to="615037319#1"/>
    <trip id="veh174" type="passenger" depart="124.91" departLane="best" from="-367194255#2" to="109505204#1"/>
    <trip id="veh175" type="passenger" depart="125.63" departLane="best" from="795671604#1" to="-337540075"/>
    <trip id="veh176" type="passenger" depart="126.34" departLane="best" departSpeed="max" from="-227019974#1" to="367700934#3"/>
    <trip id="veh177" type="passenger" depart="127.06" departLane="best" from="-116690596#0" to="-337132072#0"/>
    <trip id="veh178" type="passenger" depart="127.78" departLane="best" departSpeed="max" from="-368286982" to="-109505204#0"/>
    <trip id="veh179" type="passenger" depart="128.50" departLane="best" from="-620768869#0" to="-1305093056"/>
    <trip id="veh180" type="passenger" depart="129.22" departLane="best" departSpeed="max" from="620849594" to="1312476762"/>
    <trip id="veh181" type="passenger" depart="129.93" departLane="best" from="-109505208#1" to="368190051"/>
    <trip id="veh182" type="passenger" depart="130.65" departLane="best" from="-368104091#3" to="615037322"/>
    <trip id="veh183" type="passenger" depart="131.37" departLane="best" from="-109505208#4" to="-337132049"/>
    <trip id="veh184" type="passenger" depart="132.09" departLane="best" departSpeed="max" from="-620862578#6" to="586657908#1"/>
    <trip id="veh185" type="passenger" depart="132.80" departLane="best" departSpeed="max" from="620849594" to="644261214"/>
    <trip id="veh186" type="passenger" depart="133.52" departLane="best" from="-368027034" to="-620869256"/>
    <trip id="veh187" type="passenger" depart="134.24" departLane="best" from="586661204" to="586657042#0"/>
    <trip id="veh188" type="passenger" depart="134.96" departLane="best" from="620862578#3" to="-227131720#0"/>
    <trip id="veh189" type="passenger" depart="135.68" departLane="best" from="-116690479#1" to="-795671604#5"/>
    <trip id="veh190" type="passenger" depart="136.39" departLane="best" from="586657908#2" to="367700883#3"/>
    <trip id="veh191" type="passenger" depart="137.11" departLane="best" from="-888879166" to="367700883#1"/>
    <trip id="veh192" type="passenger" depart="137.83" departLane="best" from="109505208#0" to="586658921"/>
    <trip id="veh193" type="passenger" depart="138.55" departLane="best" from="-555600865" to="368209083"/>
    <trip id="veh194" type="passenger" depart="139.27" departLane="best" departSpeed="max" from="-34990514#4" to="337540069#1"/>
    <trip id="veh195" type="passenger" depart="139.98" departLane="best" from="-586664246#2" to="-620768866#0"/>
    <trip id="veh196" type="passenger" depart="140.70" departLane="best" departSpeed="max" from="-444811602" to="-116690480#0"/>
    <trip id="veh197" type="passenger" depart="141.42" departLane="best" from="-327075459#1" to="364177895#1"/>
    <trip id="veh198" type="passenger" depart="142.14" departLane="best" from="103765643#1" to="337540069#1"/>
    <trip id="veh199" type="passenger" depart="142.85" departLane="best" from="462987553" to="861783801"/>
    <trip id="veh200" type="passenger" depart="143.57" departLane="best" departSpeed="max" from="-628456652#1" to="368190050#1"/>
    <trip id="veh201" type="passenger" depart="144.29" departLane="best" departSpeed="max" from="586595416" to="586664246#0"/>
    <trip id="veh202" type="passenger" depart="145.01" departLane="best" from="362871972#1" to="-368096544#1"/>
    <trip id="veh203" type="passenger" depart="145.73" departLane="best" departSpeed="max" from="586595416" to="292749336#4"/>
    <trip id="veh204" type="passenger" depart="146.44" departLane="best" from="368104091#2" to="368104091#5"/>
    <trip id="veh205" type="passenger" depart="147.16" departLane="best" departSpeed="max" from="-103759573" to="-116690596#0"/>
    <trip id="veh206" type="passenger" depart="147.88" departLane="best" from="1012133718#2" to="350146691"/>
    <trip id="veh207" type="passenger" depart="148.60" departLane="best" from="-33768805#5" to="367707574#1"/>
    <trip id="veh208" type="passenger" depart="149.32" departLane="best" from="-620768869#1" to="350146688#1"/>
    <trip id="veh209" type="passenger" depart="150.03" departLane="best" from="-444826919#0" to="-368096545#1"/>
    <trip id="veh210" type="passenger" depart="150.75" departLane="best" from="-34990514#1" to="367700883#3"/>
    <trip id="veh211" type="passenger" depart="151.47" departLane="best" from="-337540069#1" to="586659413"/>
    <trip id="veh212" type="passenger" depart="152.19" departLane="best" from="-444811599#2" to="620862578#0"/>
    <trip id="veh213" type="passenger" depart="152.91" departLane="best" from="795671604#6" to="555601518"/>
    <trip id="veh214" type="passenger" depart="153.62" departLane="best" from="586657042#0" to="-977815033#1"/>
    <trip id="veh215" type="passenger" depart="154.34" departLane="best" from="-109505208#2" to="-331675474"/>
    <trip id="veh216" type="passenger" depart="155.06" departLane="best" from="-555600348#2" to="-368104071#2"/>
    <trip id="veh217" type="passenger" depart="155.78" departLane="best" from="-1117713207#1" to="368096544#3"/>
    <trip id="veh218" type="passenger" depart="156.49" departLane="best" from="-1324287528#1" to="-459934830#0"/>
    <trip id="veh219" type="passenger" depart="157.21" departLane="best" from="367707574#2" to="368204852"/>
    <trip id="veh220" type="passenger" depart="157.93" departLane="best" from="462987551" to="-368096545#3"/>
    <trip id="veh221" type="passenger" depart="158.65" departLane="best" from="-359450383#0" to="341456563"/>
    <trip id="veh222" type="passenger" depart="159.37" departLane="best" from="555600865" to="368104091#0"/>
    <trip id="veh223" type="passenger" depart="160.08" departLane="best" from="368104091#1" to="-977815031"/>
    <trip id="veh224" type="passenger" depart="160.80" departLane="best" from="368096544#2" to="620768866#1"/>
    <trip id="veh225" type="passenger" depart="161.52" departLane="best" departSpeed="max" from="586657041" to="-116690480#0"/>
    <trip id="veh226" type="passenger" depart="162.24" departLane="best" from="-1012133729" to="-555600351#0"/>
    <trip id="veh227" type="passenger" depart="162.96" departLane="best" from="-620862579" to="795671604#1"/>
    <trip id="veh228" type="passenger" depart="163.67" departLane="best" from="368104071#3" to="103759573"/>
    <trip id="veh229" type="passenger" depart="164.39" departLane="best" departSpeed="max" from="329817169" to="-977815033#0"/>
    <trip id="veh230" type="passenger" depart="165.11" departLane="best" from="615037320#2" to="341456563"/>
    <trip id="veh231" type="passenger" depart="165.83" departLane="best" from="621949168#2" to="-1324287528#0"/>
    <trip id="veh232" type="passenger" depart="166.54" departLane="best" from="587800918#2" to="109505204#0"/>
    <trip id="veh233" type="passenger" depart="167.26" departLane="best" from="1304287974" to="615037321"/>
    <trip id="veh234" type="passenger" depart="167.98" departLane="best" from="1012133718#2" to="103759573"/>
    <trip id="veh235" type="passenger" depart="168.70" departLane="best" from="-368104091#3" to="367700883#1"/>
    <trip id="veh236" type="passenger" depart="169.42" departLane="best" from="368096544#2" to="364177895#1"/>
    <trip id="veh237" type="passenger" depart="170.13" departLane="best" from="1305093055#0" to="-335575150"/>
    <trip id="veh238" type="passenger" depart="170.85" departLane="best" from="-368027038" to="-337132054"/>
    <trip id="veh239" type="passenger" depart="171.57" departLane="best" departSpeed="max" from="-341456566" to="1324287528#3"/>
    <trip id="veh240" type="passenger" depart="172.29" departLane="best" departSpeed="max" from="376346459" to="367762378"/>
    <trip id="veh241" type="passenger" depart="173.01" departLane="best" from="795671604#1" to="898487482"/>
    <trip id="veh242" type="passenger" depart="173.72" departLane="best" from="33768805#3" to="587800915#0"/>
    <trip id="veh243" type="passenger" depart="174.44" departLane="best" from="620768869#0" to="1312476762"/>
    <trip id="veh244" type="passenger" depart="175.16" departLane="best" from="586657908#1" to="292749336#5"/>
    <trip id="veh245" type="passenger" depart="175.88" departLane="best" departSpeed="max" from="376346459" to="555601438#2"/>
    <trip id="veh246" type="passenger" depart="176.59" departLane="best" departSpeed="max" from="-227019974#1" to="-1324287528#3"/>
    <trip id="veh247" type="passenger" depart="177.31" departLane="best" from="368027023#1" to="33973140#0"/>
    <trip id="veh248" type="passenger" depart="178.03" departLane="best" from="586657908#3" to="-34990516#0"/>
    <trip id="veh249" type="passenger" depart="178.75" departLane="best" departSpeed="max" from="586595416" to="898487494#0"/>
    <trip id="veh250" type="passenger" depart="179.47" departLane="best" departSpeed="max" from="116690596#0" to="-323987231#0"/>
    <trip id="veh251" type="passenger" depart="180.18" departLane="best" from="367194255#4" to="-227131720#0"/>
    <trip id="veh252" type="passenger" depart="180.90" departLane="best" departSpeed="max" from="-620865939" to="586657908#1"/>
    <trip id="veh253" type="passenger" depart="181.62" departLane="best" departSpeed="max" from="-555601438#2" to="368096545#3"/>
    <trip id="veh254" type="passenger" depart="182.34" departLane="best" from="-337540063#1" to="-620768869#0"/>
    <trip id="veh255" type="passenger" depart="183.06" departLane="best" from="-739723515#0" to="615037324"/>
    <trip id="veh256" type="passenger" depart="183.77" departLane="best" departSpeed="max" from="586657041" to="-331675474"/>
    <trip id="veh257" type="passenger" depart="184.49" departLane="best" departSpeed="max" from="116690480#0" to="586664246#0"/>
    <trip id="veh258" type="passenger" depart="185.21" departLane="best" from="850677551#0" to="109505208#0"/>