<?xml version="1.0" encoding="UTF-8"?>

<!-- generated on 2025-08-11 19:32:33.547545 by osmWebWizard.py UNKNOWN
<configuration>
    <net-file value="/home/sour/Sumo/2025-08-11-19-32-20/osm.net.xml.gz"/>
    <ptlines-file value="/home/sour/Sumo/2025-08-11-19-32-20/osm_ptlines.xml"/>
    <ptstops-file value="/home/sour/Sumo/2025-08-11-19-32-20/osm_stops.add.xml"/>
    <output-file value="/home/sour/Sumo/2025-08-11-19-32-20/osm_pt.rou.xml"/>
    <stopinfos-file value="/home/sour/Sumo/2025-08-11-19-32-20/stopinfos.xml"/>
    <routes-file value="/home/sour/Sumo/2025-08-11-19-32-20/vehroutes.xml"/>
    <trips-file value="/home/sour/Sumo/2025-08-11-19-32-20/trips.trips.xml"/>
    <min-stops value="0"/>
    <extend-to-fringe value="True"/>
    <random-begin value="True"/>
    <seed value="42"/>
    <ignore-errors value="True"/>
    <vtype-prefix value="pt_"/>
    <verbose value="True"/>
</configuration>
-->

<routes xmlns:xsi="http://www.w3.org/2001/XMLSchema-instance" xsi:noNamespaceSchemaLocation="http://sumo.dlr.de/xsd/routes_file.xsd">
    <vType id="pt_bus" vClass="bus"/>
    <vType id="pt_tram" vClass="tram"/>
    <vType id="pt_train" vClass="rail"/>
    <vType id="pt_subway" vClass="subway"/>
    <vType id="pt_light_rail" vClass="rail_urban"/>
    <vType id="pt_monorail" vClass="rail_urban"/>
    <vType id="pt_trolleybus" vClass="bus"/>
    <vType id="pt_minibus" vClass="bus"/>
    <vType id="pt_share_taxi" vClass="taxi"/>
    <vType id="pt_aerialway" vClass="cable_car" length="2.5" width="2" personCapacity="4"/>
    <vType id="pt_ferry" vClass="ship"/>
    <route id="pt_bus_東海校園接駁車(平日):0" edges="367762378" >
        <stop busStop="3716494690" duration="20" until="37.0"/> <!-- 女生宿舍 -->
    </route>
    <flow id="pt_bus_東海校園接駁車(平日):0" type="pt_bus" route="pt_bus_東海校園接駁車(平日):0" begin="383.0" end="3983.0" period="600" line="東海校園接駁車(平日):0" >
        <param key="name" value="東海校園接駁車(平日) 科技大樓－管院大樓 (去程)"/>
        <param key="completeness" value="0.14"/>
    </flow>
    <vType id="motorcycle" 
        
       length="1.5" 
       minGap="0.3" 
       lcStrategic="1.5" 
       lcKeepRight="0" 
       maxSpeed="27.78" 
       width="0.8"     
       accel="4.0"
       vClass="motorcycle"/>
    <vType id="passenger" 
       vClass="passenger" 
       minGap="1"       
       lcStrategic="0.8"   
       lcKeepRight="0.1"
       maxSpeed="33.33"
       length="5.0"
       width="1.8"
       />
</routes>
