<?xml version="1.0" encoding="UTF-8"?>

<!-- generated on 2025-10-25 17:22:17 by Eclipse SUMO netedit Version 1.24.0
-->

<additional xmlns:xsi="http://www.w3.org/2001/XMLSchema-instance" xsi:noNamespaceSchemaLocation="http://sumo.dlr.de/xsd/additional_file.xsd">
    <!-- StoppingPlaces -->
    <busStop id="3716494690" name="女生宿舍" lane="367762378_0" startPos="6.20" endPos="21.20" friendlyPos="1" lines="( )"/>
</additional>
