<?xml version="1.0" encoding="UTF-8"?>

<!-- generated on 2025-10-31 02:08:38 by Eclipse SUMO netedit Version 1.24.0
-->

<routes xmlns:xsi="http://www.w3.org/2001/XMLSchema-instance" xsi:noNamespaceSchemaLocation="http://sumo.dlr.de/xsd/routes_file.xsd">
    <!-- VTypes -->
    <vType id="pt_aerialway" length="2.50" vClass="cable_car" width="2.00" personCapacity="4"/>
    <vType id="pt_bus" vClass="bus"/>
    <vType id="pt_ferry" vClass="ship"/>
    <vType id="pt_light_rail" vClass="rail_urban"/>
    <vType id="pt_minibus" vClass="bus"/>
    <vType id="pt_monorail" vClass="rail_urban"/>
    <vType id="pt_share_taxi" vClass="taxi"/>
    <vType id="pt_subway" vClass="subway"/>
    <vType id="pt_train" vClass="rail"/>
    <vType id="pt_tram" vClass="tram"/>
    <vType id="pt_trolleybus" vClass="bus"/>
    <!-- Routes -->
    <route id="pt_bus_東海校園接駁車(平日):0" edges="367762378">
        <stop busStop="3716494690" duration="20.00" until="37.00"/>
    </route>
    <!-- Vehicles, persons and containers (sorted by depart) -->
    <flow id="pt_bus_東海校園接駁車(平日):0" type="pt_bus" begin="383.00" line="東海校園接駁車(平日):0" route="pt_bus_東海校園接駁車(平日):0" end="3983.00" period="600.00">
        <param key="completeness" value="0.14"/>
        <param key="name" value="東海校園接駁車(平日) 科技大樓－管院大樓 (去程)"/>
    </flow>
</routes>
