<?xml version="1.0" encoding="UTF-8"?>

<!-- generated on 2025-11-04 18:46:23.841230 by randomTrips.py UNKNOWN
<configuration>
    <net-file value="./custom_net.net.xml"/>
    <output-trip-file value="custom_truck_flow.xml"/>
    <prefix value="truck"/>
    <trip-attributes value="type=&quot;truck&quot;"/>
    <flows value="5"/>
</configuration>
-->

<!-- generated on 2025-11-04 18:46:23 by Eclipse SUMO duarouter Version 1.24.0
<duarouterConfiguration xmlns:xsi="http://www.w3.org/2001/XMLSchema-instance" xsi:noNamespaceSchemaLocation="http://sumo.dlr.de/xsd/duarouterConfiguration.xsd">

    <input>
        <net-file value="./custom_net.net.xml"/>
        <route-files value="custom_truck_flow.xml"/>
    </input>

    <output>
        <output-file value="routes.rou.xml"/>
        <alternatives-output value="NUL"/>
    </output>

    <time>
        <begin value="0"/>
        <end value="3600.0"/>
    </time>

    <report>
        <no-warnings value="true"/>
        <ignore-errors value="true"/>
        <no-step-log value="true"/>
    </report>

</duarouterConfiguration>
-->

<routes xmlns:xsi="http://www.w3.org/2001/XMLSchema-instance" xsi:noNamespaceSchemaLocation="http://sumo.dlr.de/xsd/routes_file.xsd">
    <vehicle id="truck1.0" type="truck" depart="0.00">
        <route edges="-586664246#2 109505207#0 109505208#2 350146691#0 350146691#1 258656153#1 -350146688#6"/>
    </vehicle>
    <vehicle id="truck2.0" type="truck" depart="0.00">
        <route edges="586657908#0 586657908#2 586657042#1"/>
    </vehicle>
    <vehicle id="truck3.0" type="truck" depart="0.00">
        <route edges="890146631#1 890146631#2 586657908#0 586657908#2 586657908#3 -586664246#4 -586664246#2 -586664246#1 -109505204#2 -109505204#0 -1117713207#1"/>
    </vehicle>
    <vehicle id="truck4.0" type="truck" depart="0.00">
        <route edges="1305093055#0 109505204#1 362871972#0 253653636 -109505207#2"/>
    </vehicle>
    <vehicle id="truck1.1" type="truck" depart="5.00">
        <route edges="-586664246#2 109505207#0 109505208#2 350146691#0 350146691#1 258656153#1 -350146688#6"/>
    </vehicle>
    <vehicle id="truck2.1" type="truck" depart="5.00">
        <route edges="586657908#0 586657908#2 586657042#1"/>
    </vehicle>
    <vehicle id="truck3.1" type="truck" depart="5.00">
        <route edges="890146631#1 890146631#2 586657908#0 586657908#2 586657908#3 -586664246#4 -586664246#2 -586664246#1 -109505204#2 -109505204#0 -1117713207#1"/>
    </vehicle>
    <vehicle id="truck4.1" type="truck" depart="5.00">
        <route edges="1305093055#0 109505204#1 362871972#0 253653636 -109505207#2"/>
    </vehicle>
    <vehicle id="truck1.2" type="truck" depart="10.00">
        <route edges="-586664246#2 109505207#0 109505208#2 350146691#0 350146691#1 258656153#1 -350146688#6"/>
    </vehicle>
    <vehicle id="truck2.2" type="truck" depart="10.00">
        <route edges="586657908#0 586657908#2 586657042#1"/>
    </vehicle>
    <vehicle id="truck3.2" type="truck" depart="10.00">
        <route edges="890146631#1 890146631#2 586657908#0 586657908#2 586657908#3 -586664246#4 -586664246#2 -586664246#1 -109505204#2 -109505204#0 -1117713207#1"/>
    </vehicle>
    <vehicle id="truck4.2" type="truck" depart="10.00">
        <route edges="1305093055#0 109505204#1 362871972#0 253653636 -109505207#2"/>
    </vehicle>
    <vehicle id="truck1.3" type="truck" depart="15.00">
        <route edges="-586664246#2 109505207#0 109505208#2 350146691#0 350146691#1 258656153#1 -350146688#6"/>
    </vehicle>
    <vehicle id="truck2.3" type="truck" depart="15.00">
        <route edges="586657908#0 586657908#2 586657042#1"/>
    </vehicle>
    <vehicle id="truck3.3" type="truck" depart="15.00">
        <route edges="890146631#1 890146631#2 586657908#0 586657908#2 586657908#3 -586664246#4 -586664246#2 -586664246#1 -109505204#2 -109505204#0 -1117713207#1"/>
    </vehicle>
    <vehicle id="truck4.3" type="truck" depart="15.00">
        <route edges="1305093055#0 109505204#1 362871972#0 253653636 -109505207#2"/>
    </vehicle>
    <vehicle id="truck1.4" type="truck" depart="20.00">
        <route edges="-586664246#2 109505207#0 109505208#2 350146691#0 350146691#1 258656153#1 -350146688#6"/>
    </vehicle>
    <vehicle id="truck2.4" type="truck" depart="20.00">
        <route edges="586657908#0 586657908#2 586657042#1"/>
    </vehicle>
    <vehicle id="truck3.4" type="truck" depart="20.00">
        <route edges="890146631#1 890146631#2 586657908#0 586657908#2 586657908#3 -586664246#4 -586664246#2 -586664246#1 -109505204#2 -109505204#0 -1117713207#1"/>
    </vehicle>
    <vehicle id="truck4.4" type="truck" depart="20.00">
        <route edges="1305093055#0 109505204#1 362871972#0 253653636 -109505207#2"/>
    </vehicle>
    <vehicle id="truck1.5" type="truck" depart="25.00">
        <route edges="-586664246#2 109505207#0 109505208#2 350146691#0 350146691#1 258656153#1 -350146688#6"/>
    </vehicle>
    <vehicle id="truck2.5" type="truck" depart="25.00">
        <route edges="586657908#0 586657908#2 586657042#1"/>
    </vehicle>
    <vehicle id="truck3.5" type="truck" depart="25.00">
        <route edges="890146631#1 890146631#2 586657908#0 586657908#2 586657908#3 -586664246#4 -586664246#2 -586664246#1 -109505204#2 -109505204#0 -1117713207#1"/>
    </vehicle>
    <vehicle id="truck4.5" type="truck" depart="25.00">
        <route edges="1305093055#0 109505204#1 362871972#0 253653636 -109505207#2"/>
    </vehicle>
    <vehicle id="truck1.6" type="truck" depart="30.00">
        <route edges="-586664246#2 109505207#0 109505208#2 350146691#0 350146691#1 258656153#1 -350146688#6"/>
    </vehicle>
    <vehicle id="truck2.6" type="truck" depart="30.00">
        <route edges="586657908#0 586657908#2 586657042#1"/>
    </vehicle>
    <vehicle id="truck3.6" type="truck" depart="30.00">
        <route edges="890146631#1 890146631#2 586657908#0 586657908#2 586657908#3 -586664246#4 -586664246#2 -586664246#1 -109505204#2 -109505204#0 -1117713207#1"/>
    </vehicle>
    <vehicle id="truck4.6" type="truck" depart="30.00">
        <route edges="1305093055#0 109505204#1 362871972#0 253653636 -109505207#2"/>
    </vehicle>
    <vehicle id="truck1.7" type="truck" depart="35.00">
        <route edges="-586664246#2 109505207#0 109505208#2 350146691#0 350146691#1 258656153#1 -350146688#6"/>
    </vehicle>
    <vehicle id="truck2.7" type="truck" depart="35.00">
        <route edges="586657908#0 586657908#2 586657042#1"/>
    </vehicle>
    <vehicle id="truck3.7" type="truck" depart="35.00">
        <route edges="890146631#1 890146631#2 586657908#0 586657908#2 586657908#3 -586664246#4 -586664246#2 -586664246#1 -109505204#2 -109505204#0 -1117713207#1"/>
    </vehicle>
    <vehicle id="truck4.7" type="truck" depart="35.00">
        <route edges="1305093055#0 109505204#1 362871972#0 253653636 -109505207#2"/>
    </vehicle>
    <vehicle id="truck1.8" type="truck" depart="40.00">
        <route edges="-586664246#2 109505207#0 109505208#2 350146691#0 350146691#1 258656153#1 -350146688#6"/>
    </vehicle>
    <vehicle id="truck2.8" type="truck" depart="40.00">
        <route edges="586657908#0 586657908#2 586657042#1"/>
    </vehicle>
    <vehicle id="truck3.8" type="truck" depart="40.00">
        <route edges="890146631#1 890146631#2 586657908#0 586657908#2 586657908#3 -586664246#4 -586664246#2 -586664246#1 -109505204#2 -109505204#0 -1117713207#1"/>
    </vehicle>
    <vehicle id="truck4.8" type="truck" depart="40.00">
        <route edges="1305093055#0 109505204#1 362871972#0 253653636 -109505207#2"/>
    </vehicle>
    <vehicle id="truck1.9" type="truck" depart="45.00">
        <route edges="-586664246#2 109505207#0 109505208#2 350146691#0 350146691#1 258656153#1 -350146688#6"/>
    </vehicle>
    <vehicle id="truck2.9" type="truck" depart="45.00">
        <route edges="586657908#0 586657908#2 586657042#1"/>
    </vehicle>
    <vehicle id="truck3.9" type="truck" depart="45.00">
        <route edges="890146631#1 890146631#2 586657908#0 586657908#2 586657908#3 -586664246#4 -586664246#2 -586664246#1 -109505204#2 -109505204#0 -1117713207#1"/>
    </vehicle>
    <vehicle id="truck4.9" type="truck" depart="45.00">
        <route edges="1305093055#0 109505204#1 362871972#0 253653636 -109505207#2"/>
    </vehicle>
    <vehicle id="truck1.10" type="truck" depart="50.00">
        <route edges="-586664246#2 109505207#0 109505208#2 350146691#0 350146691#1 258656153#1 -350146688#6"/>
    </vehicle>
    <vehicle id="truck2.10" type="truck" depart="50.00">
        <route edges="586657908#0 586657908#2 586657042#1"/>
    </vehicle>
    <vehicle id="truck3.10" type="truck" depart="50.00">
        <route edges="890146631#1 890146631#2 586657908#0 586657908#2 586657908#3 -586664246#4 -586664246#2 -586664246#1 -109505204#2 -109505204#0 -1117713207#1"/>
    </vehicle>
    <vehicle id="truck4.10" type="truck" depart="50.00">
        <route edges="1305093055#0 109505204#1 362871972#0 253653636 -109505207#2"/>
    </vehicle>
    <vehicle id="truck1.11" type="truck" depart="55.00">
        <route edges="-586664246#2 109505207#0 109505208#2 350146691#0 350146691#1 258656153#1 -350146688#6"/>
    </vehicle>
    <vehicle id="truck2.11" type="truck" depart="55.00">
        <route edges="586657908#0 586657908#2 586657042#1"/>
    </vehicle>
    <vehicle id="truck3.11" type="truck" depart="55.00">
        <route edges="890146631#1 890146631#2 586657908#0 586657908#2 586657908#3 -586664246#4 -586664246#2 -586664246#1 -109505204#2 -109505204#0 -1117713207#1"/>
    </vehicle>
    <vehicle id="truck4.11" type="truck" depart="55.00">
        <route edges="1305093055#0 109505204#1 362871972#0 253653636 -109505207#2"/>
    </vehicle>
    <vehicle id="truck1.12" type="truck" depart="60.00">
        <route edges="-586664246#2 109505207#0 109505208#2 350146691#0 350146691#1 258656153#1 -350146688#6"/>
    </vehicle>
    <vehicle id="truck2.12" type="truck" depart="60.00">
        <route edges="586657908#0 586657908#2 586657042#1"/>
    </vehicle>
    <vehicle id="truck3.12" type="truck" depart="60.00">
        <route edges="890146631#1 890146631#2 586657908#0 586657908#2 586657908#3 -586664246#4 -586664246#2 -586664246#1 -109505204#2 -109505204#0 -1117713207#1"/>
    </vehicle>
    <vehicle id="truck4.12" type="truck" depart="60.00">
        <route edges="1305093055#0 109505204#1 362871972#0 253653636 -109505207#2"/>
    </vehicle>
    <vehicle id="truck1.13" type="truck" depart="65.00">
        <route edges="-586664246#2 109505207#0 109505208#2 350146691#0 350146691#1 258656153#1 -350146688#6"/>
    </vehicle>
    <vehicle id="truck2.13" type="truck" depart="65.00">
        <route edges="586657908#0 586657908#2 586657042#1"/>
    </vehicle>
    <vehicle id="truck3.13" type="truck" depart="65.00">
        <route edges="890146631#1 890146631#2 586657908#0 586657908#2 586657908#3 -586664246#4 -586664246#2 -586664246#1 -109505204#2 -109505204#0 -1117713207#1"/>
    </vehicle>
    <vehicle id="truck4.13" type="truck" depart="65.00">
        <route edges="1305093055#0 109505204#1 362871972#0 253653636 -109505207#2"/>
    </vehicle>
    <vehicle id="truck1.14" type="truck" depart="70.00">
        <route edges="-586664246#2 109505207#0 109505208#2 350146691#0 350146691#1 258656153#1 -350146688#6"/>
    </vehicle>
    <vehicle id="truck2.14" type="truck" depart="70.00">
        <route edges="586657908#0 586657908#2 586657042#1"/>
    </vehicle>
    <vehicle id="truck3.14" type="truck" depart="70.00">
        <route edges="890146631#1 890146631#2 586657908#0 586657908#2 586657908#3 -586664246#4 -586664246#2 -586664246#1 -109505204#2 -109505204#0 -1117713207#1"/>
    </vehicle>
    <vehicle id="truck4.14" type="truck" depart="70.00">
        <route edges="1305093055#0 109505204#1 362871972#0 253653636 -109505207#2"/>
    </vehicle>
    <vehicle id="truck1.15" type="truck" depart="75.00">
        <route edges="-586664246#2 109505207#0 109505208#2 350146691#0 350146691#1 258656153#1 -350146688#6"/>
    </vehicle>
    <vehicle id="truck2.15" type="truck" depart="75.00">
        <route edges="586657908#0 586657908#2 586657042#1"/>
    </vehicle>
    <vehicle id="truck3.15" type="truck" depart="75.00">
        <route edges="890146631#1 890146631#2 586657908#0 586657908#2 586657908#3 -586664246#4 -586664246#2 -586664246#1 -109505204#2 -109505204#0 -1117713207#1"/>
    </vehicle>
    <vehicle id="truck4.15" type="truck" depart="75.00">
        <route edges="1305093055#0 109505204#1 362871972#0 253653636 -109505207#2"/>
    </vehicle>
    <vehicle id="truck1.16" type="truck" depart="80.00">
        <route edges="-586664246#2 109505207#0 109505208#2 350146691#0 350146691#1 258656153#1 -350146688#6"/>
    </vehicle>
    <vehicle id="truck2.16" type="truck" depart="80.00">
        <route edges="586657908#0 586657908#2 586657042#1"/>
    </vehicle>
    <vehicle id="truck3.16" type="truck" depart="80.00">
        <route edges="890146631#1 890146631#2 586657908#0 586657908#2 586657908#3 -586664246#4 -586664246#2 -586664246#1 -109505204#2 -109505204#0 -1117713207#1"/>
    </vehicle>
    <vehicle id="truck4.16" type="truck" depart="80.00">
        <route edges="1305093055#0 109505204#1 362871972#0 253653636 -109505207#2"/>
    </vehicle>
    <vehicle id="truck1.17" type="truck" depart="85.00">
        <route edges="-586664246#2 109505207#0 109505208#2 350146691#0 350146691#1 258656153#1 -350146688#6"/>
    </vehicle>
    <vehicle id="truck2.17" type="truck" depart="85.00">
        <route edges="586657908#0 586657908#2 586657042#1"/>
    </vehicle>
    <vehicle id="truck3.17" type="truck" depart="85.00">
        <route edges="890146631#1 890146631#2 586657908#0 586657908#2 586657908#3 -586664246#4 -586664246#2 -586664246#1 -109505204#2 -109505204#0 -1117713207#1"/>
    </vehicle>
    <vehicle id="truck4.17" type="truck" depart="85.00">
        <route edges="1305093055#0 109505204#1 362871972#0 253653636 -109505207#2"/>
    </vehicle>
    <vehicle id="truck1.18" type="truck" depart="90.00">
        <route edges="-586664246#2 109505207#0 109505208#2 350146691#0 350146691#1 258656153#1 -350146688#6"/>
    </vehicle>
    <vehicle id="truck2.18" type="truck" depart="90.00">
        <route edges="586657908#0 586657908#2 586657042#1"/>
    </vehicle>
    <vehicle id="truck3.18" type="truck" depart="90.00">
        <route edges="890146631#1 890146631#2 586657908#0 586657908#2 586657908#3 -586664246#4 -586664246#2 -586664246#1 -109505204#2 -109505204#0 -1117713207#1"/>
    </vehicle>
    <vehicle id="truck4.18" type="truck" depart="90.00">
        <route edges="1305093055#0 109505204#1 362871972#0 253653636 -109505207#2"/>
    </vehicle>
    <vehicle id="truck1.19" type="truck" depart="95.00">
        <route edges="-586664246#2 109505207#0 109505208#2 350146691#0 350146691#1 258656153#1 -350146688#6"/>
    </vehicle>
    <vehicle id="truck2.19" type="truck" depart="95.00">
        <route edges="586657908#0 586657908#2 586657042#1"/>
    </vehicle>
    <vehicle id="truck3.19" type="truck" depart="95.00">
        <route edges="890146631#1 890146631#2 586657908#0 586657908#2 586657908#3 -586664246#4 -586664246#2 -586664246#1 -109505204#2 -109505204#0 -1117713207#1"/>
    </vehicle>
    <vehicle id="truck4.19" type="truck" depart="95.00">
        <route edges="1305093055#0 109505204#1 362871972#0 253653636 -109505207#2"/>
    </vehicle>
    <vehicle id="truck1.20" type="truck" depart="100.00">
        <route edges="-586664246#2 109505207#0 109505208#2 350146691#0 350146691#1 258656153#1 -350146688#6"/>
    </vehicle>
    <vehicle id="truck2.20" type="truck" depart="100.00">
        <route edges="586657908#0 586657908#2 586657042#1"/>
    </vehicle>
    <vehicle id="truck3.20" type="truck" depart="100.00">
        <route edges="890146631#1 890146631#2 586657908#0 586657908#2 586657908#3 -586664246#4 -586664246#2 -586664246#1 -109505204#2 -109505204#0 -1117713207#1"/>
    </vehicle>
    <vehicle id="truck4.20" type="truck" depart="100.00">
        <route edges="1305093055#0 109505204#1 362871972#0 253653636 -109505207#2"/>
    </vehicle>
    <vehicle id="truck1.21" type="truck" depart="105.00">
        <route edges="-586664246#2 109505207#0 109505208#2 350146691#0 350146691#1 258656153#1 -350146688#6"/>
    </vehicle>
    <vehicle id="truck2.21" type="truck" depart="105.00">
        <route edges="586657908#0 586657908#2 586657042#1"/>
    </vehicle>
    <vehicle id="truck3.21" type="truck" depart="105.00">
        <route edges="890146631#1 890146631#2 586657908#0 586657908#2 586657908#3 -586664246#4 -586664246#2 -586664246#1 -109505204#2 -109505204#0 -1117713207#1"/>
    </vehicle>
    <vehicle id="truck4.21" type="truck" depart="105.00">
        <route edges="1305093055#0 109505204#1 362871972#0 253653636 -109505207#2"/>
    </vehicle>
    <vehicle id="truck1.22" type="truck" depart="110.00">
        <route edges="-586664246#2 109505207#0 109505208#2 350146691#0 350146691#1 258656153#1 -350146688#6"/>
    </vehicle>
    <vehicle id="truck2.22" type="truck" depart="110.00">
        <route edges="586657908#0 586657908#2 586657042#1"/>
    </vehicle>
    <vehicle id="truck3.22" type="truck" depart="110.00">
        <route edges="890146631#1 890146631#2 586657908#0 586657908#2 586657908#3 -586664246#4 -586664246#2 -586664246#1 -109505204#2 -109505204#0 -1117713207#1"/>
    </vehicle>
    <vehicle id="truck4.22" type="truck" depart="110.00">
        <route edges="1305093055#0 109505204#1 362871972#0 253653636 -109505207#2"/>
    </vehicle>
    <vehicle id="truck1.23" type="truck" depart="115.00">
        <route edges="-586664246#2 109505207#0 109505208#2 350146691#0 350146691#1 258656153#1 -350146688#6"/>
    </vehicle>
    <vehicle id="truck2.23" type="truck" depart="115.00">
        <route edges="586657908#0 586657908#2 586657042#1"/>
    </vehicle>
    <vehicle id="truck3.23" type="truck" depart="115.00">
        <route edges="890146631#1 890146631#2 586657908#0 586657908#2 586657908#3 -586664246#4 -586664246#2 -586664246#1 -109505204#2 -109505204#0 -1117713207#1"/>
    </vehicle>
    <vehicle id="truck4.23" type="truck" depart="115.00">
        <route edges="1305093055#0 109505204#1 362871972#0 253653636 -109505207#2"/>
    </vehicle>
    <vehicle id="truck1.24" type="truck" depart="120.00">
        <route edges="-586664246#2 109505207#0 109505208#2 350146691#0 350146691#1 258656153#1 -350146688#6"/>
    </vehicle>
    <vehicle id="truck2.24" type="truck" depart="120.00">
        <route edges="586657908#0 586657908#2 586657042#1"/>
    </vehicle>
    <vehicle id="truck3.24" type="truck" depart="120.00">
        <route edges="890146631#1 890146631#2 586657908#0 586657908#2 586657908#3 -586664246#4 -586664246#2 -586664246#1 -109505204#2 -109505204#0 -1117713207#1"/>
    </vehicle>
    <vehicle id="truck4.24" type="truck" depart="120.00">
        <route edges="1305093055#0 109505204#1 362871972#0 253653636 -109505207#2"/>
    </vehicle>
    <vehicle id="truck1.25" type="truck" depart="125.00">
        <route edges="-586664246#2 109505207#0 109505208#2 350146691#0 350146691#1 258656153#1 -350146688#6"/>
    </vehicle>
    <vehicle id="truck2.25" type="truck" depart="125.00">
        <route edges="586657908#0 586657908#2 586657042#1"/>
    </vehicle>
    <vehicle id="truck3.25" type="truck" depart="125.00">
        <route edges="890146631#1 890146631#2 586657908#0 586657908#2 586657908#3 -586664246#4 -586664246#2 -586664246#1 -109505204#2 -109505204#0 -1117713207#1"/>
    </vehicle>
    <vehicle id="truck4.25" type="truck" depart="125.00">
        <route edges="1305093055#0 109505204#1 362871972#0 253653636 -109505207#2"/>
    </vehicle>
    <vehicle id="truck1.26" type="truck" depart="130.00">
        <route edges="-586664246#2 109505207#0 109505208#2 350146691#0 350146691#1 258656153#1 -350146688#6"/>
    </vehicle>
    <vehicle id="truck2.26" type="truck" depart="130.00">
        <route edges="586657908#0 586657908#2 586657042#1"/>
    </vehicle>
    <vehicle id="truck3.26" type="truck" depart="130.00">
        <route edges="890146631#1 890146631#2 586657908#0 586657908#2 586657908#3 -586664246#4 -586664246#2 -586664246#1 -109505204#2 -109505204#0 -1117713207#1"/>
    </vehicle>
    <vehicle id="truck4.26" type="truck" depart="130.00">
        <route edges="1305093055#0 109505204#1 362871972#0 253653636 -109505207#2"/>
    </vehicle>
    <vehicle id="truck1.27" type="truck" depart="135.00">
        <route edges="-586664246#2 109505207#0 109505208#2 350146691#0 350146691#1 258656153#1 -350146688#6"/>
    </vehicle>
    <vehicle id="truck2.27" type="truck" depart="135.00">
        <route edges="586657908#0 586657908#2 586657042#1"/>
    </vehicle>
    <vehicle id="truck3.27" type="truck" depart="135.00">
        <route edges="890146631#1 890146631#2 586657908#0 586657908#2 586657908#3 -586664246#4 -586664246#2 -586664246#1 -109505204#2 -109505204#0 -1117713207#1"/>
    </vehicle>
    <vehicle id="truck4.27" type="truck" depart="135.00">
        <route edges="1305093055#0 109505204#1 362871972#0 253653636 -109505207#2"/>
    </vehicle>
    <vehicle id="truck1.28" type="truck" depart="140.00">
        <route edges="-586664246#2 109505207#0 109505208#2 350146691#0 350146691#1 258656153#1 -350146688#6"/>
    </vehicle>
    <vehicle id="truck2.28" type="truck" depart="140.00">
        <route edges="586657908#0 586657908#2 586657042#1"/>
    </vehicle>
    <vehicle id="truck3.28" type="truck" depart="140.00">
        <route edges="890146631#1 890146631#2 586657908#0 586657908#2 586657908#3 -586664246#4 -586664246#2 -586664246#1 -109505204#2 -109505204#0 -1117713207#1"/>
    </vehicle>
    <vehicle id="truck4.28" type="truck" depart="140.00">
        <route edges="1305093055#0 109505204#1 362871972#0 253653636 -109505207#2"/>
    </vehicle>
    <vehicle id="truck1.29" type="truck" depart="145.00">
        <route edges="-586664246#2 109505207#0 109505208#2 350146691#0 350146691#1 258656153#1 -350146688#6"/>
    </vehicle>
    <vehicle id="truck2.29" type="truck" depart="145.00">
        <route edges="586657908#0 586657908#2 586657042#1"/>
    </vehicle>
    <vehicle id="truck3.29" type="truck" depart="145.00">
        <route edges="890146631#1 890146631#2 586657908#0 586657908#2 586657908#3 -586664246#4 -586664246#2 -586664246#1 -109505204#2 -109505204#0 -1117713207#1"/>
    </vehicle>
    <vehicle id="truck4.29" type="truck" depart="145.00">
        <route edges="1305093055#0 109505204#1 362871972#0 253653636 -109505207#2"/>
    </vehicle>
    <vehicle id="truck1.30" type="truck" depart="150.00">
        <route edges="-586664246#2 109505207#0 109505208#2 350146691#0 350146691#1 258656153#1 -350146688#6"/>
    </vehicle>
    <vehicle id="truck2.30" type="truck" depart="150.00">
        <route edges="586657908#0 586657908#2 586657042#1"/>
    </vehicle>
    <vehicle id="truck3.30" type="truck" depart="150.00">
        <route edges="890146631#1 890146631#2 586657908#0 586657908#2 586657908#3 -586664246#4 -586664246#2 -586664246#1 -109505204#2 -109505204#0 -1117713207#1"/>
    </vehicle>
    <vehicle id="truck4.30" type="truck" depart="150.00">
        <route edges="1305093055#0 109505204#1 362871972#0 253653636 -109505207#2"/>
    </vehicle>
    <vehicle id="truck1.31" type="truck" depart="155.00">
        <route edges="-586664246#2 109505207#0 109505208#2 350146691#0 350146691#1 258656153#1 -350146688#6"/>
    </vehicle>
    <vehicle id="truck2.31" type="truck" depart="155.00">
        <route edges="586657908#0 586657908#2 586657042#1"/>
    </vehicle>
    <vehicle id="truck3.31" type="truck" depart="155.00">
        <route edges="890146631#1 890146631#2 586657908#0 586657908#2 586657908#3 -586664246#4 -586664246#2 -586664246#1 -109505204#2 -109505204#0 -1117713207#1"/>
    </vehicle>
    <vehicle id="truck4.31" type="truck" depart="155.00">
        <route edges="1305093055#0 109505204#1 362871972#0 253653636 -109505207#2"/>
    </vehicle>
    <vehicle id="truck1.32" type="truck" depart="160.00">
        <route edges="-586664246#2 109505207#0 109505208#2 350146691#0 350146691#1 258656153#1 -350146688#6"/>
    </vehicle>
    <vehicle id="truck2.32" type="truck" depart="160.00">
        <route edges="586657908#0 586657908#2 586657042#1"/>
    </vehicle>
    <vehicle id="truck3.32" type="truck" depart="160.00">
        <route edges="890146631#1 890146631#2 586657908#0 586657908#2 586657908#3 -586664246#4 -586664246#2 -586664246#1 -109505204#2 -109505204#0 -1117713207#1"/>
    </vehicle>
    <vehicle id="truck4.32" type="truck" depart="160.00">
        <route edges="1305093055#0 109505204#1 362871972#0 253653636 -109505207#2"/>
    </vehicle>
    <vehicle id="truck1.33" type="truck" depart="165.00">
        <route edges="-586664246#2 109505207#0 109505208#2 350146691#0 350146691#1 258656153#1 -350146688#6"/>
    </vehicle>
    <vehicle id="truck2.33" type="truck" depart="165.00">
        <route edges="586657908#0 586657908#2 586657042#1"/>
    </vehicle>
    <vehicle id="truck3.33" type="truck" depart="165.00">
        <route edges="890146631#1 890146631#2 586657908#0 586657908#2 586657908#3 -586664246#4 -586664246#2 -586664246#1 -109505204#2 -109505204#0 -1117713207#1"/>
    </vehicle>
    <vehicle id="truck4.33" type="truck" depart="165.00">
        <route edges="1305093055#0 109505204#1 362871972#0 253653636 -109505207#2"/>
    </vehicle>
    <vehicle id="truck1.34" type="truck" depart="170.00">
        <route edges="-586664246#2 109505207#0 109505208#2 350146691#0 350146691#1 258656153#1 -350146688#6"/>
    </vehicle>
    <vehicle id="truck2.34" type="truck" depart="170.00">
        <route edges="586657908#0 586657908#2 586657042#1"/>
    </vehicle>
    <vehicle id="truck3.34" type="truck" depart="170.00">
        <route edges="890146631#1 890146631#2 586657908#0 586657908#2 586657908#3 -586664246#4 -586664246#2 -586664246#1 -109505204#2 -109505204#0 -1117713207#1"/>
    </vehicle>
    <vehicle id="truck4.34" type="truck" depart="170.00">
        <route edges="1305093055#0 109505204#1 362871972#0 253653636 -109505207#2"/>
    </vehicle>
    <vehicle id="truck1.35" type="truck" depart="175.00">
        <route edges="-586664246#2 109505207#0 109505208#2 350146691#0 350146691#1 258656153#1 -350146688#6"/>
    </vehicle>
    <vehicle id="truck2.35" type="truck" depart="175.00">
        <route edges="586657908#0 586657908#2 586657042#1"/>
    </vehicle>
    <vehicle id="truck3.35" type="truck" depart="175.00">
        <route edges="890146631#1 890146631#2 586657908#0 586657908#2 586657908#3 -586664246#4 -586664246#2 -586664246#1 -109505204#2 -109505204#0 -1117713207#1"/>
    </vehicle>
    <vehicle id="truck4.35" type="truck" depart="175.00">
        <route edges="1305093055#0 109505204#1 362871972#0 253653636 -109505207#2"/>
    </vehicle>
    <vehicle id="truck1.36" type="truck" depart="180.00">
        <route edges="-586664246#2 109505207#0 109505208#2 350146691#0 350146691#1 258656153#1 -350146688#6"/>
    </vehicle>
    <vehicle id="truck2.36" type="truck" depart="180.00">
        <route edges="586657908#0 586657908#2 586657042#1"/>
    </vehicle>
    <vehicle id="truck3.36" type="truck" depart="180.00">
        <route edges="890146631#1 890146631#2 586657908#0 586657908#2 586657908#3 -586664246#4 -586664246#2 -586664246#1 -109505204#2 -109505204#0 -1117713207#1"/>
    </vehicle>
    <vehicle id="truck4.36" type="truck" depart="180.00">
        <route edges="1305093055#0 109505204#1 362871972#0 253653636 -109505207#2"/>
    </vehicle>
    <vehicle id="truck1.37" type="truck" depart="185.00">
        <route edges="-586664246#2 109505207#0 109505208#2 350146691#0 350146691#1 258656153#1 -350146688#6"/>
    </vehicle>
    <vehicle id="truck2.37" type="truck" depart="185.00">
        <route edges="586657908#0 586657908#2 586657042#1"/>
    </vehicle>
    <vehicle id="truck3.37" type="truck" depart="185.00">
        <route edges="890146631#1 890146631#2 586657908#0 586657908#2 586657908#3 -586664246#4 -586664246#2 -586664246#1 -109505204#2 -109505204#0 -1117713207#1"/>
    </vehicle>
    <vehicle id="truck4.37" type="truck" depart="185.00">
        <route edges="1305093055#0 109505204#1 362871972#0 253653636 -109505207#2"/>
    </vehicle>
    <vehicle id="truck1.38" type="truck" depart="190.00">
        <route edges="-586664246#2 109505207#0 109505208#2 350146691#0 350146691#1 258656153#1 -350146688#6"/>
    </vehicle>
    <vehicle id="truck2.38" type="truck" depart="190.00">
        <route edges="586657908#0 586657908#2 586657042#1"/>
    </vehicle>
    <vehicle id="truck3.38" type="truck" depart="190.00">
        <route edges="890146631#1 890146631#2 586657908#0 586657908#2 586657908#3 -586664246#4 -586664246#2 -586664246#1 -109505204#2 -109505204#0 -1117713207#1"/>
    </vehicle>
    <vehicle id="truck4.38" type="truck" depart="190.00">
        <route edges="1305093055#0 109505204#1 362871972#0 253653636 -109505207#2"/>
    </vehicle>
    <vehicle id="truck1.39" type="truck" depart="195.00">
        <route edges="-586664246#2 109505207#0 109505208#2 350146691#0 350146691#1 258656153#1 -350146688#6"/>
    </vehicle>
    <vehicle id="truck2.39" type="truck" depart="195.00">
        <route edges="586657908#0 586657908#2 586657042#1"/>
    </vehicle>
    <vehicle id="truck3.39" type="truck" depart="195.00">
        <route edges="890146631#1 890146631#2 586657908#0 586657908#2 586657908#3 -586664246#4 -586664246#2 -586664246#1 -109505204#2 -109505204#0 -1117713207#1"/>
    </vehicle>
    <vehicle id="truck4.39" type="truck" depart="195.00">
        <route edges="1305093055#0 109505204#1 362871972#0 253653636 -109505207#2"/>
    </vehicle>
    <vehicle id="truck1.40" type="truck" depart="200.00">
        <route edges="-586664246#2 109505207#0 109505208#2 350146691#0 350146691#1 258656153#1 -350146688#6"/>
    </vehicle>
    <vehicle id="truck2.40" type="truck" depart="200.00">
        <route edges="586657908#0 586657908#2 586657042#1"/>
    </vehicle>
    <vehicle id="truck3.40" type="truck" depart="200.00">