<?xml version="1.0" encoding="UTF-8"?>

<!-- generated on 2025-11-01 20:59:52 by Eclipse SUMO duarouter Version 1.24.0
<duarouterConfiguration xmlns:xsi="http://www.w3.org/2001/XMLSchema-instance" xsi:noNamespaceSchemaLocation="http://sumo.dlr.de/xsd/duarouterConfiguration.xsd">

    <input>
        <net-file value="./osm.net.xml"/>
        <route-files value="./trips.trips_p5_e2500.xml"/>
    </input>

    <output>
        <output-file value="./routes.rou.xml"/>
    </output>

</duarouterConfiguration>
-->

<routes xmlns:xsi="http://www.w3.org/2001/XMLSchema-instance" xsi:noNamespaceSchemaLocation="http://sumo.dlr.de/xsd/routes_file.xsd">
    <vehicle id="0" depart="0.00">
        <route edges="341456542 -462987552#1 -462987552#0 -620768869#4 -620768869#3 -620768869#2 -620768869#1 -620768869#0 -620768866#0 -621949168#5 -621949168#4 -621949168#2 -621949168#1 -33836788#2 -33836788#0 -1305093054 380090117#0 212722205 644261214 1305093056 587800915#0 587800915#1 587800915#2 587800915#3 587800915#4 587800915#5 586657908#0 586657908#1 -350146688#3 -350146688#2 -109505207#4"/>
    </vehicle>
    <vehicle id="1" depart="5.00">
        <route edges="-368104091#4 -368104091#3 -368104091#2 -368104091#1 117467837 368204852 368096546#0 368096546#1 -116690480#2 -368027050 368096544#0 368096544#1 368096544#2 368096544#3 367762382#0 367762382#1 367762382#2 367762382#3 367762382#4 -367762382#4 -367762382#3"/>
    </vehicle>
    <vehicle id="2" depart="10.00">
        <route edges="368096545#1 368096545#2 368096545#3 368096545#4 368096544#0 368096544#1 368096544#2 368096544#3 367762382#0 367762382#1 367762382#2 367762382#3 367762382#4 364177895#1"/>
    </vehicle>
    <vehicle id="3" depart="15.00">
        <route edges="615037319#0 615037319#1 362871972#0 362871972#1 362871972#2 362871972#3 -1305093056 -644261214 33768751 368104071#0 368104071#1 368104071#2 368104071#3 368104071#4 368104071#5 368027034 368027023#0 368027023#1 -227100505#0 227100507#0 227100507#1 -227100507#1"/>
    </vehicle>
    <vehicle id="4" depart="20.00">
        <route edges="-795671604#0 -227100505#1 -368027023#1 -368027023#0 -368027034 -368104071#5 -368104071#4 -368104071#3 -368104071#2 -368104071#1 -368104071#0 -33768751 644261214 1305093056 587800915#0 587800915#1 587800915#2 587800915#3 587800915#4 587800915#5 586657908#0 586657908#1 586657908#2 -109505208#4 -109505208#3 -109505208#2"/>
    </vehicle>
    <vehicle id="5" depart="25.00">
        <route edges="-367762382#2 -367762382#1 -367762382#0 -368096544#3 -368096544#2 -368096544#1 -368096544#0 -368096545#4 -368096545#3 -368096545#2 -368096545#1 -368096545#0 -368104071#4 -368104071#3 -368104071#2 -368104071#1 -368104071#0 -33768751 644261214 615037322 380090117#0 103765643#0 103765643#1 103765643#2 34990514#0 34990514#1 34990514#2 34990515#2 -1304287974 -1222974661 -359450383#1 444811601 116690593#1"/>
    </vehicle>
    <vehicle id="6" depart="30.00">
        <route edges="-109505207#3 -109505208#1 -109505208#0 -253653636 362871972#1 362871972#2 362871972#3 -1305093056 -644261214 33768751 368104071#0 368104071#1 368104071#2 368104071#3 368104071#4 368104071#5 368027034 368027023#0 368027023#1 -227100505#0 227100507#0 227100507#1 1408953124#1 1408953124#2 367762378 367194255#0 367194255#1 367194255#2 367194255#3 367194255#4 -367194255#4 -367194255#3"/>
    </vehicle>
    <vehicle id="7" depart="35.00">
        <route edges="34990516#0 34990516#1 34990516#2 -368104091#5 -368104091#4 -368104091#3 -368104091#2 -368104091#1 117467837 368204852 368096546#0 368096546#1 -116690480#2 -368027050 -368096545#4 -368096545#3 -368096545#2 -368096545#1 -368096545#0 -368104071#4 -368104071#3 -368104071#2 -368104071#1 -368104071#0 -33768751 644261214 615037322 380090117#0 103765643#0 103765643#1 103765643#2 34990514#0 226946949"/>
    </vehicle>
    <vehicle id="8" depart="40.00">
        <route edges="-367762382#3 -367762382#2 -367762382#1 -367762382#0 -368096544#3 -368096544#2 -368096544#1 -368096544#0 -368096545#4 -368096545#3 -368096545#2 -368096545#1 -368096545#0 -368104071#4 -368104071#3 -368104071#2 -368104071#1 -368104071#0 -33768751 644261214 1305093056 292749336#0 292749336#2 292749336#3 292749336#4 292749336#5 292749336#6 33836788#0 33836788#2 621949168#1 621949168#2 621949168#4 621949168#5 620768866#0 620768869#0 620768869#1 620863350 337132072#1 337132072#2 337132072#3 337132072#4 337132072#5"/>
    </vehicle>
    <vehicle id="9" depart="45.00">
        <route edges="462987551 -337132072#10 -337132072#7 -337132072#5 -337132072#4 -337132072#3 -337132072#2 -337132072#1 -620863350 -620768869#1 -620768869#0 -620768866#0 -621949168#5 -621949168#4 -621949168#2 -621949168#1 -33836788#2 -33836788#0 -1305093054 380090117#0 212722205 33768751 368104071#0 368104071#1 368104071#2 368104071#3 368104071#4 1012133718#0 1012133718#1 1012133718#2 1012133718#3 1012133718#4 -1012133718#4 -1012133718#3"/>
    </vehicle>
    <vehicle id="10" depart="50.00">
        <route edges="462986979 -462987552#0 -620768869#4 -620768869#3 -620768869#2 -620768869#1 -620768869#0 -620768866#0 -621949168#5 -621949168#4 -621949168#2 -621949168#1 -33836788#2 -33836788#0 -1305093054 380090117#0 212722205 33768751 368104071#0 368104071#1 368104071#2 368104071#3 368104071#4 368104071#5 368027034 368027023#0 368027023#1 1312476762 367700934#1 367700934#2 367700934#3"/>
    </vehicle>
    <vehicle id="11" depart="55.00">
        <route edges="-586659717 -586657041 898487494#0 898487494#1 -586664246#4 -586664246#3 -586664246#2 -586664246#1 -586664246#0 362871972#0 362871972#1 362871972#2 362871972#3 -1305093056 -644261214 33768751 368104071#0 368104071#1 368104071#2 368104071#3 368104071#4 368104071#5 368027034 368027023#0 368027023#1 1312476762 367700934#1 367700934#2 367700934#3 368027038 33768805#0 33768805#1 33768805#2 33768805#3 33768805#4 33768805#5 33973140#0 33973140#1 33973140#2 33973140#3 33973140#4 -368027027#1 -368027027#0 1012133719 368027027#1 368027027#2 -33973140#3 -33973140#2 -33973140#1"/>
    </vehicle>
    <vehicle id="12" depart="60.00">
        <route edges="739723515#0 739723515#1 362871972#3 -1305093056 -644261214 364177895#0 364177895#1 364177895#2 362714491 555601518 -555601518"/>
    </vehicle>
    <vehicle id="13" depart="65.00">
        <route edges="-227131720#2 -227131720#1 -1012133729 116690479#2 116690479#3 368204852 368096546#0 368096546#1 -116690480#2 -368027050 -368096545#4 -368096545#3 -368096545#2 -368096545#1 -368096545#0 -368104071#4 -368104071#3 -368104071#2 -368104071#1 -368104071#0 -33768751 644261214 1305093056 587800915#0 587800915#1 587800915#2 -323987231#1"/>
    </vehicle>
    <vehicle id="14" depart="70.00">
        <route edges="586657908#4 -586664246#4 -586664246#3 -586664246#2 -586664246#1 -586664246#0 362871972#0 362871972#1 362871972#2 362871972#3 -1305093056 -644261214 33768751"/>
    </vehicle>
    <vehicle id="15" depart="75.00">
        <route edges="462987550 -620862578#5 -620862578#4 -620862578#3 -620862578#2 -620862578#1 -620862578#0 -327075459#1 -327075459#0 -621949168#5 -621949168#4 -621949168#2 -621949168#1 -33836788#2 -33836788#0 -1305093054 380090117#0 212722205 364177895#0 -367762382#4 -367762382#3 -367762382#2 -367762382#1 -367762382#0 -368096544#3 -368096544#2 -368096544#1 -368096544#0 368096544#0 368096544#1 368096544#2 368096544#3"/>
    </vehicle>
    <vehicle id="16" depart="80.00">
        <route edges="1408953124#1 1408953124#2 367762378 367194255#0 367194255#1 367194255#2 367194255#3 367194255#4 -367194255#4 -367194255#3 -367194255#2 -367194255#1 -367194255#0 -367762378 -1408953124#2 -1408953124#1 -227100507#1 -227100507#0 227100505#0 227100505#1 795671604#0 795671604#1 795671604#2 795671604#3 795671604#4 795671604#5 795671604#6 795671604#7"/>
    </vehicle>
    <vehicle id="17" depart="85.00">
        <route edges="-620771557 -327075459#0 -621949168#5 -621949168#4 -621949168#2 -621949168#1 -33836788#2 -33836788#0 -1305093054 380090117#0 212722205 33768751 368104071#0 368104071#1 368104071#2 368104071#3 368104071#4 368104071#5 368027034 368027023#0 368027023#1 -227100505#0 227100507#0"/>
    </vehicle>
    <vehicle id="18" depart="90.00">
        <route edges="555601518 615037323 615037321 615037319#0 615037319#1 362871972#0 362871972#1 362871972#2 362871972#3 292749336#0 292749336#2 292749336#3 292749336#4 292749336#5 292749336#6 33836788#0 33836788#2"/>
    </vehicle>
    <vehicle id="19" depart="95.00">
        <route edges="586664246#3 586664246#4 586664247#0 1324287528#0 1324287528#1 1324287528#2 1324287528#3 337540069#0 -628456652#0 -336988370#1 -336988370#0 336988370#0 336988370#1"/>
    </vehicle>
    <vehicle id="20" depart="100.00">
        <route edges="367707574#2 -227100507#1 -227100507#0 227100505#0 -368027023#1 -368027023#0 -368027034 -368104071#5 368096545#0 368096545#1 368096545#2 368096545#3 368096545#4 368096545#5 116690480#2 -368096546#1 -368096546#0 368096546#0 368096546#1 -116690480#2"/>
    </vehicle>
    <vehicle id="21" depart="105.00">
        <route edges="-368027027#1 -368027027#0 1012133719 368027027#1 368027027#2 -33973140#3 -33973140#2 -33973140#1 -33973140#0 -33768805#5 -33768805#4 -33768805#3 -33768805#2 -33768805#1 -33768805#0 -368027038 -367700934#3 -367700934#2 -367700934#1 -367700934#0 -368027023#1 -368027023#0 -368027034 -368104071#5 -368104071#4 -368104071#3 -368104071#2 -368104071#1 -368104071#0 -33768751 644261214 615037322 380090117#0 -380090117#1"/>
    </vehicle>
    <vehicle id="22" depart="110.00">
        <route edges="-226946949 -34990514#0 -103765643#3 -103765643#1 -103765643#0 212722205 33768751 368104071#0 368104071#1 368104071#2 368104071#3 368104071#4 368104071#5 368027034 368027023#0 368027023#1 -368027023#1 -368027023#0 -368027034"/>
    </vehicle>
    <vehicle id="23" depart="115.00">
        <route edges="-336988370#0 336988370#0 336988370#1 -615037320#1 -615037321 -615037323 -555601518 1122773432#0 34990516#0 34990516#1 34990516#2 -368104091#5 -368104091#4 -368104091#3"/>
    </vehicle>
    <vehicle id="24" depart="120.00">
        <route edges="-620768869#0 -620768866#0 -621949168#5 -621949168#4 -621949168#2 -621949168#1 -33836788#2 -33836788#0 -1305093054 380090117#0 212722205 33768751 368104071#0 368104071#1 368104071#2 368104071#3 368104071#4 368104071#5 368027034 368027023#0 368027023#1 1312476762 367700934#1 367700934#2 367700934#3 368027038 33768805#0 33768805#1 33768805#2 33768805#3 33768805#4 33768805#5 33973140#0 33973140#1 33973140#2 33973140#3 33973140#4 -368027027#1 -368027027#0 1012133719 368027027#1 368027027#2 -33973140#3 -33973140#2 -33973140#1 -33973140#0 -33768805#5 -33768805#4 -33768805#3 -33768805#2 -33768805#1 -33768805#0 -368027038 -367700934#3 -367700934#2"/>
    </vehicle>
    <vehicle id="25" depart="125.00">
        <route edges="-368104071#5 -368104071#4 -368104071#3 -368104071#2 -368104071#1 -368104071#0 -33768751 644261214 1305093056 292749336#0 292749336#2 292749336#3 292749336#4 292749336#5 292749336#6 33836788#0 33836788#2 621949168#1 621949168#2 621949168#4 621949168#5 327075459#0 327075459#1 620862579"/>
    </vehicle>
    <vehicle id="26" depart="130.00">
        <route edges="34990515#2 -34990515#2 -34990515#1 -34990514#1 -34990514#0 -103765643#3 -103765643#1 -103765643#0 212722205 33768751 368104071#0 368104071#1 368104071#2 368104071#3 368104071#4 368104071#5 368027034 368027023#0 368027023#1 1312476762 367700934#1 367700934#2 367700934#3 368027038 33768805#0 33768805#1 33768805#2"/>
    </vehicle>
    <vehicle id="27" depart="135.00">
        <route edges="-34990516#1 -34990516#0 34990516#0 34990516#1 34990516#2 -368104091#5 -368104091#4 -368104091#3 -368104091#2 -368104091#1 117467837 368204852 368096546#0 368096546#1 -116690480#2 -368027050 368096544#0 368096544#1 368096544#2 368096544#3"/>
    </vehicle>
    <vehicle id="28" depart="140.00">
        <route edges="-34990514#4 -34990515#1 -34990514#1 -34990514#0 -103765643#3 -103765643#1 -103765643#0 -380090117#1 1305093054 33836788#0 33836788#2 621949168#1 621949168#2 621949168#4 621949168#5 620768866#0 620768869#0 620772305#0 -620772305#0"/>
    </vehicle>
    <vehicle id="29" depart="145.00">
        <route edges="898487483#0 888879165 -888879165 -888879166 -586664246#4 -586664246#3 -586664246#2 -586664246#1 -586664246#0 362871972#0 362871972#1 362871972#2 362871972#3 -1305093056 615037322 380090117#0 103765643#0 103765643#1 103765643#2 34990514#0 34990514#1 34990514#2 34990514#4"/>
    </vehicle>
    <vehicle id="30" depart="150.00">
        <route edges="227131720#1 227131720#2 -227131720#2 -227131720#1 -1012133729 116690479#2 116690479#3 368204852 368096546#0 368096546#1 -116690480#2 -368027050 -368096545#4 -368096545#3 -368096545#2 -368096545#1 -368096545#0 368104071#5 368027034 368027023#0 368027023#1 -227100505#0 227100507#0 227100507#1 1408953124#1 1408953124#2 367762378 367194255#0 367194255#1 367194255#2 367194255#3"/>
    </vehicle>
    <vehicle id="31" depart="155.00">
        <route edges="586657908#1 586657042#3 898487482 587800918#0 587800918#1 587800918#2 587800918#3 587800918#4 587800918#5 -1305093056 615037322 380090117#0 103765643#0 103765643#1 103765643#2 34990514#0 34990514#1 368209083"/>
    </vehicle>
    <vehicle id="32" depart="160.00">
        <route edges="-368027034 -368104071#5 -368104071#4 -368104071#3 -368104071#2 -368104071#1 -368104071#0 -33768751 644261214 1305093056 587800915#0 587800915#1 587800915#2 587800915#3 587800915#4 587800915#5 586657908#0 586657908#1 586657908#2 -109505208#4"/>
    </vehicle>
    <vehicle id="33" depart="165.00">
        <route edges="-462987552#0 -620768869#4 -620768869#3 -620768869#2 -620768869#1 -620768869#0 -620768866#0 -621949168#5 -621949168#4 -621949168#2 -621949168#1 -33836788#2 -33836788#0 -1305093054 380090117#0 212722205 33768751 368104071#0 368104071#1 368104071#2 368104071#3 368104071#4 -368104071#4 -368104071#3"/>
    </vehicle>
    <vehicle id="34" depart="170.00">
        <route edges="-367707574#0 -1408953126#0 1408953126#0 1408953126#1 367707574#1 367707574#2 -227100507#1 -227100507#0 227100505#0 -368027023#1 -368027023#0 -368027034 -368104071#5 -368104071#4 -368104071#3 -368104071#2 -368104071#1 -368104071#0 -33768751 644261214 1305093056 292749336#0 292749336#2 292749336#3 292749336#4 292749336#5 292749336#6 33836788#0 33836788#2 621949168#1 621949168#2 621949168#4 621949168#5 620768866#0 620768869#0 620768869#1 620768869#2 620768869#3 620870374"/>
    </vehicle>
    <vehicle id="35" depart="175.00">
        <route edges="587800915#4 587800915#5 898487482 587800918#0 587800918#1 587800918#2 587800918#3 587800918#4 587800918#5 292749336#0 292749336#2 292749336#3 292749336#4 292749336#5 292749336#6 33836788#0 33836788#2 621949168#1 621949168#2 621949168#4 621949168#5 620768866#0 620768869#0 620768869#1 620768869#2 620768869#3 620768869#4 462987552#0 -462986979"/>
    </vehicle>
    <vehicle id="36" depart="180.00">
        <route edges="350146685#0 350146685#1 -350146691 -109505208#4 -109505208#3 -109505208#2 -109505208#1 -109505208#0 -253653636 362871972#1 362871972#2 362871972#3 292749336#0 292749336#2 292749336#3 292749336#4 292749336#5 292749336#6 33836788#0 33836788#2 621949168#1 621949168#2 621949168#4 621949168#5 620768866#0 620768869#0 620768869#1 620768869#2 620768869#3 620768869#4 462987552#0 462987552#1 -341456542 -620862578#4"/>
    </vehicle>
    <vehicle id="37" depart="185.00">
        <route edges="620768869#4 462987553 -620862578#2 -620862578#1 -620862578#0 -327075459#1 -327075459#0 -621949168#5 -621949168#4 -621949168#2 -621949168#1 -33836788#2 -33836788#0 -1305093054 380090117#0 212722205 364177895#0 364177895#1 364177895#2 362714491 1122773432#0 34990516#0 34990516#1 34990516#2 368104091#6 850677551#0 850677551#1 850677551#3 116690479#0 116690479#1 1012133729"/>
    </vehicle>
    <vehicle id="38" depart="190.00">
        <route edges="-368104071#4 -368104071#3 -368104071#2 -368104071#1 -368104071#0 -33768751 364177895#0 -367762382#4 -367762382#3 -367762382#2 -367762382#1 -367762382#0 -368096544#3 -368096544#2 -368096544#1 -368096544#0 -368096545#4 -368096545#3 -368096545#2 -368096545#1 -368096545#0"/>
    </vehicle>
    <vehicle id="39" depart="195.00">
        <route edges="292749336#0 587218913 -977815031 587800918#5 -1305093056 -644261214 33768751 368104071#0 368104071#1 368104071#2 368104071#3 368104071#4 -368104071#4 -368104071#3 -368104071#2 -368104071#1 -368104071#0"/>
    </vehicle>
    <vehicle id="40" depart="200.00">
        <route edges="336988370#1 -615037320#1 615037319#0 615037319#1 362871972#0 362871972#1 362871972#2 362871972#3 -1305093056 615037322"/>
    </vehicle>
    <vehicle id="41" depart="205.00">
        <route edges="-620862579 -327075459#1 -327075459#0 -621949168#5 -621949168#4 -621949168#2 -621949168#1 -33836788#2 -33836788#0 -1305093054 380090117#0 212722205 364177895#0 -367762382#4 -367762382#3 -367762382#2 -367762382#1"/>
    </vehicle>
    <vehicle id="42" depart="210.00">
        <route edges="977815033#0 977815033#1 444826908#0 444826908#1 -444826908#1 -444826908#0 -977815033#1 -977815033#0 -587218913 292749336#2 292749336#3 292749336#4 292749336#5 292749336#6 33836788#0 33836788#2 -33836788#2 -33836788#0 -1305093054 380090117#0 103765643#0 103765643#1 103765643#2 34990514#0 34990514#1 34990514#2 34990515#2 -1304287973 -116690596#2 116690596#2"/>
    </vehicle>
    <vehicle id="43" depart="215.00">
        <route edges="-227131720#1 -1012133729 116690479#2 116690479#3 368204852 368096546#0 368096546#1 -116690480#2 -368027050 -368096545#4 -368096545#3 -368096545#2 -368096545#1 -368096545#0 -368104071#4 -368104071#3 -368104071#2 -368104071#1 -368104071#0 -33768751 644261214 615037322 380090117#0 103765643#0 103765643#1 103765643#2 34990514#0 34990514#1 34990514#2 34990515#2 -1304287974 -1222974661 -359450383#1 444811601 -116690593#0"/>
    </vehicle>
    <vehicle id="44" depart="220.00">
        <route edges="-337132072#10 -337132072#7 -337132072#5 -337132072#4 -337132072#3 -337132072#2 -337132072#1 -620863350 -620768869#1 -620768869#0 -620768866#0 -621949168#5 -621949168#4 -621949168#2 -621949168#1 -33836788#2 -33836788#0 -1305093054 380090117#0 212722205 644261214 1305093056 587800915#0 587800915#1 587800915#2 587800915#3 587800915#4 587800915#5 898487493 341096510#1"/>
    </vehicle>
    <vehicle id="45" depart="225.00">
        <route edges="444826908#0 444826908#1 -444826908#1 -444826908#0 -977815033#1 -977815033#0 -977815031 587800918#5 -1305093056 -644261214 33768751 368104071#0 368104071#1 368104071#2 368104071#3 368104071#4 368104071#5 368027034 368027023#0 368027023#1 227100505#1 795671604#0 795671604#1 795671604#2 795671604#3 795671604#4 795671604#5 795671604#6 795671604#7 795671604#8 367700883#0 367700883#1 367700883#2 367700883#3 -367700883#3 -367700883#2 -367700883#1 -367700883#0 -795671604#8 -795671604#7 -795671604#6 -795671604#5 -795671604#4 -795671604#3 -795671604#2 -795671604#1"/>
    </vehicle>
    <vehicle id="46" depart="230.00">
        <route edges="-1305093056 1305093056 292749336#0 292749336#2 292749336#3 292749336#4 292749336#5 292749336#6 33836788#0 33836788#2 621949168#1 621949168#2 621949168#4 621949168#5 620768866#0 620768869#0 620772305#0 620772305#1 620775234#1 620775234#2 -620775234#2 -620775234#1"/>
    </vehicle>
    <vehicle id="47" depart="235.00">
        <route edges="977815031 -977815031 587800918#5 -1305093056 -644261214 364177895#0 364177895#1 364177895#2 1117713207#0 109505204#0 109505204#1 586664246#0 586664246#1 586664246#2 586664246#3 586664246#4 586664247#0 1324287528#0 1324287528#1"/>
    </vehicle>
    <vehicle id="48" depart="240.00">
        <route edges="795671604#6 795671604#7 795671604#8 367700883#0 367700883#1 367700883#2 367700883#3 -367700883#3 -367700883#2 -367700883#1 -367700883#0 -795671604#8 -795671604#7 -795671604#6 -795671604#5 -795671604#4 -795671604#3 -795671604#2 -795671604#1 -795671604#0 -227100505#1 -368027023#1 -368027023#0 -368027034 -368104071#5 -368104071#4 -368104071#3 -368104071#2 -368104071#1 -368104071#0 -33768751 364177895#0 364177895#1 364177895#2 1117713207#0 109505204#0 109505204#1 586664246#0 586664246#1 586664246#2 586664246#3 586664246#4"/>
    </vehicle>
    <vehicle id="49" depart="245.00">
        <route edges="-103759573 -103765643#3 -103765643#1 -103765643#0 212722205 33768751 368104071#0 368104071#1 368104071#2 368104071#3 368104071#4 368104071#5 368027034"/>
    </vehicle>
    <vehicle id="50" depart="250.00">
        <route edges="364177895#1 364177895#2 1117713207#0 109505204#0 109505204#1 362871972#0 362871972#1 362871972#2 362871972#3 -1305093056 -644261214 33768751 368104071#0 368104071#1 368104071#2 368104071#3 368104071#4 368104071#5 368027034 368027023#0 368027023#1 -227100505#0 227100507#0 227100507#1 -1408953128 -367707574#1 -367707574#0 -1408953126#0 1408953126#0 1408953126#1"/>
    </vehicle>
    <vehicle id="51" depart="255.00">
        <route edges="-368104071#5 -368104071#4 -368104071#3 -368104071#2 -368104071#1 -368104071#0 -33768751 644261214 615037322 380090117#0 103765643#0 103765643#1 103765643#2 34990514#0 34990514#1 34990515#1"/>
    </vehicle>
    <vehicle id="52" depart="260.00">
        <route edges="-337132072#3 -337132072#2 -337132072#1 -620863350 -620768869#1 -620768869#0 -620768866#0 -621949168#5 -621949168#4 -621949168#2 -621949168#1 -33836788#2 -33836788#0 -1305093054 380090117#0 212722205 33768751 368104071#0 368104071#1 368104071#2 368104071#3 368104071#4 368104071#5 368027034 368027023#0 368027023#1 227100505#1 795671604#0 795671604#1 795671604#2 795671604#3 795671604#4 795671604#5 795671604#6 795671604#7 795671604#8 367700883#0 367700883#1 367700883#2 367700883#3 -367700883#3 -367700883#2 -367700883#1 -367700883#0 -795671604#8"/>
    </vehicle>
    <vehicle id="53" depart="265.00">
        <route edges="1012133718#1 1012133718#2 1012133718#3 1012133718#4 -1012133718#4 -1012133718#3 -1012133718#2 -1012133718#1 -1012133718#0 -368104071#4 -368104071#3 -368104071#2 -368104071#1 -368104071#0 -33768751 364177895#0 364177895#1 364177895#2 362714491 555601518 615037323 615037321 615037319#0 -337540069#1 628456652#1"/>
    </vehicle>
    <vehicle id="54" depart="270.00">
        <route edges="587800915#4 587800915#5 898487482 587800918#0 587800918#1 587800918#2 587800918#3 587800918#4 587800918#5 -1305093056 -644261214 33768751 368104071#0 368104071#1 368104071#2 368104071#3 368104071#4 -368104071#4 -368104071#3 -368104071#2 -368104071#1 -368104071#0"/>
    </vehicle>
    <vehicle id="55" depart="275.00">
        <route edges="116690480#1 -368027050 368096544#0 368096544#1 368096544#2 368096544#3 367762382#0 367762382#1 367762382#2 367762382#3 367762382#4 364177895#1 364177895#2 1117713207#0 109505204#0 109505204#1 586664246#0 586664246#1 586664246#2 586664246#3 586664246#4 586657042#0 350146691 -350146685#1"/>
    </vehicle>
    <vehicle id="56" depart="280.00">
        <route edges="620768869#3 620870374 -620862578#1 -620862578#0 -327075459#1 -327075459#0 -621949168#5 -621949168#4 -621949168#2 -621949168#1 -33836788#2 -33836788#0 -1305093054 380090117#0 212722205 644261214 1305093056 587800915#0 587800915#1 587800915#2"/>
    </vehicle>
    <vehicle id="57" depart="285.00">
        <route edges="-444826908#0 -977815033#1 -977815033#0 -587218913 292749336#2 292749336#3 292749336#4 292749336#5 292749336#6 33836788#0 33836788#2 -33836788#2 -33836788#0 -1305093054 380090117#0 103765643#0 103765643#1 103765643#2 34990514#0 34990514#1 34990514#2 34990514#4"/>
    </vehicle>
    <vehicle id="58" depart="290.00">
        <route edges="337540069#0 337540069#1 615037319#1 362871972#0 362871972#1 362871972#2 362871972#3 -1305093056 -644261214 33768751 368104071#0 368104071#1 368104071#2 368104071#3 368104071#4 368104071#5 368027034 368027023#0 368027023#1 1312476762 367700934#1 367700934#2 367700934#3 368027038 33768805#0 33768805#1 33768805#2 33768805#3 33768805#4 33768805#5 33973140#0 33973140#1 33973140#2 33973140#3 33973140#4 -368027027#1 -368027027#0 1012133719 368027027#1 368027027#2 -33973140#3 -33973140#2 -33973140#1 -33973140#0"/>
    </vehicle>
    <vehicle id="59" depart="295.00">
        <route edges="368104091#0 -368104091#0 368096546#0 368096546#1 -116690480#2 -368027050 -368096545#4 -368096545#3 -368096545#2 -368096545#1 -368096545#0 -368104071#4 -368104071#3 -368104071#2 -368104071#1 -368104071#0 -33768751 644261214 615037322 212414966"/>
    </vehicle>
    <vehicle id="60" depart="300.00">
        <route edges="368204852 368096546#0 368096546#1 -116690480#2 -368027050 368096544#0 368096544#1 368096544#2 368096544#3 367762382#0 367762382#1 367762382#2 367762382#3 367762382#4 364177895#1 364177895#2 1117713207#0 109505204#0 109505204#1 586664246#0 586664246#1 586664246#2 586664246#3 586664246#4 586664247#0 1324287528#0 1324287528#1 1324287528#2"/>
    </vehicle>
    <vehicle id="61" depart="305.00">
        <route edges="-1012133718#0 -368104071#4 -368104071#3 -368104071#2 -368104071#1 -368104071#0 -33768751 364177895#0 364177895#1 364177895#2 1117713207#0 109505204#0 109505204#1 586664246#0 586664246#1 555600352 555600351#1 -555600348#0"/>
    </vehicle>
    <vehicle id="62" depart="310.00">
        <route edges="-109505204#2 109505204#1 362871972#0 362871972#1 362871972#2 362871972#3 292749336#0 292749336#2 292749336#3 292749336#4 292749336#5 292749336#6 33836788#0 33836788#2 621949168#1 621949168#2 621949168#4 621949168#5 327075459#0 327075459#1 620862578#0 620862578#1 620862578#2"/>
    </vehicle>
    <vehicle id="63" depart="315.00">
        <route edges="587800918#0 587800915#3 587800915#4 587800915#5 586657908#0 586657908#1 586657908#2 586657042#1"/>
    </vehicle>
    <vehicle id="64" depart="320.00">
        <route edges="-444826919#1 -444826919#0 -444826908#3 -444826908#2 -444826908#1 -444826908#0 -977815033#1 -977815033#0 -587218913 292749336#2 292749336#3 292749336#4 292749336#5 292749336#6 33836788#0 33836788#2 -33836788#2 -33836788#0 -1305093054 380090117#0 103765643#0 103765643#1 103765643#2 34990514#0 34990514#1 34990514#2 34990515#2 -1304287974 -1222974661"/>
    </vehicle>
    <vehicle id="65" depart="325.00">
        <route edges="587800915#5 898487482 587800918#0 587800918#1 587800918#2 587800918#3 587800918#4 587800918#5 292749336#0 292749336#2 292749336#3 292749336#4 292749336#5 292749336#6 33836788#0 33836788#2 621949168#1 621949168#2"/>
    </vehicle>
    <vehicle id="66" depart="330.00">
        <route edges="-227100505#1 -368027023#1 -368027023#0 -368027034 -368104071#5 -368104071#4 -368104071#3 -368104071#2 -368104071#1 -368104071#0 -33768751 364177895#0 364177895#1 364177895#2 1117713207#0 109505204#0 109505204#1 362871972#0 253653636 109505208#0 109505208#1 109505208#2 109505208#3"/>
    </vehicle>
    <vehicle id="67" depart="335.00">
        <route edges="-1324287528#2 -555600348#2 -555600348#0 -586664246#2 -586664246#1 -586664246#0 -109505204#2 -109505204#0 -1117713207#1 362714491 1122773432#0 34990516#0 34990516#1 34990516#2 -368104091#5 -368104091#4 -368104091#3 -368104091#2 -368104091#1 -368104091#0 368104091#0"/>
    </vehicle>
    <vehicle id="68" depart="340.00">
        <route edges="368104091#2 368104091#3 368104091#4 368104091#5 -368104091#5 -368104091#4 -368104091#3 -368104091#2 -368104091#1 117467837 368204852 368096546#0 368096546#1 -116690480#2 -368027050 368096544#0 368096544#1 368096544#2 368096544#3 367762382#0 367762382#1 367762382#2 367762382#3 367762382#4 364177895#1 364177895#2 362714491 555601518 615037323 615037321 615037319#0 -337540069#1 -337540069#0 -1324287528#3 -337540063#1"/>
    </vehicle>
    <vehicle id="69" depart="345.00">
        <route edges="109505207#3 109505207#4 350146688#2 350146688#3 586657042#3 898487482 587800918#0 587800918#1 587800918#2 587800918#3 587800918#4 587800918#5 -1305093056 -644261214 33768751 368104071#0 368104071#1 368104071#2 368104071#3 368104071#4 368104071#5 368027034 368027023#0 368027023#1 -227100505#0 227100507#0 227100507#1 -227100507#1 -227100507#0 227100505#0"/>
    </vehicle>
    <vehicle id="70" depart="350.00">
        <route edges="-368104071#4 -368104071#3 -368104071#2 -368104071#1 -368104071#0 -33768751 644261214 1305093056 587800915#0 587800915#1 587800915#2 587800915#3"/>
    </vehicle>
    <vehicle id="71" depart="355.00">
        <route edges="-795671604#1 -795671604#0 -227100505#1 1312476762 367700934#1 367700934#2 367700934#3 368027038 33768805#0 33768805#1 33768805#2 33768805#3 33768805#4 33768805#5 33973140#0 33973140#1 33973140#2 33973140#3 33973140#4 -368027027#1 -368027027#0 1012133719 368027027#1 368027027#2 -33973140#3 -33973140#2 -33973140#1 -33973140#0 -33768805#5 -33768805#4 -33768805#3 -33768805#2 -33768805#1 -33768805#0 -368027038 -367700934#3"/>
    </vehicle>
    <vehicle id="72" depart="360.00">
        <route edges="1408953126#0 1408953126#1 367707574#1 367707574#2 -227100507#1 -227100507#0 227100505#0 -368027023#1 -368027023#0 -368027034 -368104071#5 368096545#0 368096545#1 368096545#2 368096545#3 368096545#4 368096544#0 368096544#1 368096544#2 368096544#3"/>
    </vehicle>
    <vehicle id="73" depart="365.00">
        <route edges="-367700883#2 -367700883#1 -367700883#0 -795671604#8 -795671604#7 -795671604#6 -795671604#5 -795671604#4 -795671604#3 -795671604#2 -795671604#1 -795671604#0 -227100505#1 -368027023#1 -368027023#0 -368027034 -368104071#5 -368104071#4 -368104071#3 -368104071#2 -368104071#1 -368104071#0 -33768751 644261214 1305093056 292749336#0 587218913 977815033#0 977815033#1 444826908#0 444826908#1 -459934830#1 -459934830#0"/>
    </vehicle>
    <vehicle id="74" depart="370.00">
        <route edges="977815031 -977815031 587800918#5 587800915#0 587800915#1 587800915#2 587800915#3 587800915#4 587800915#5 898487493 341096510#1 350146685#0"/>
    </vehicle>
    <vehicle id="75" depart="375.00">